*SOIL-PLANT-ATMOSPHERE MODULE OUTPUT FILE

*DSSAT Cropping System Model Ver. 4.8.0.019 -develop  APR 08, 2023 12:34:37

*RUN   1        : IITA-TMS-IBA000070        CSYCA048 UYAB1901    1
 MODEL          : CSYCA048 - Cassava
 EXPERIMENT     : UYAB1901 CS UYT_GXE
 DATA PATH      :
 TREATMENT  1   : IITA-TMS-IBA000070        CSYCA048
  
!                                                                                                                                                                                        Soil evaporation (mm/d) by soil depth (cm):
!                                                                                                                                                                                        0-5    5-15   15-30   30-45   45-60   60-90  90-120 120-150 150-180 180-200
@YEAR DOY   DAS   SRAA  TMAXA  TMINA    REFA    EOAA    EOPA    EOSA    KCAA    KCBA    KEAA    ETAA    EPAA    ESAA    EFAA    EMAA    EOAC    ETAC    EPAC    ESAC    EFAC    EMAC    ES1D    ES2D    ES3D    ES4D    ES5D    ES6D    ES7D    ES8D    ES9D   ES10D   TRWUD
 2019 168     1  22.40  34.40  22.30 -99.000   6.694   0.000   6.694 -99.000 -99.000 -99.000   6.694   0.000   6.694   0.000   0.000    6.69    6.69    0.00    6.69    0.00    0.00   1.231   0.944   0.857   0.632   0.499   0.772   0.591   0.488   0.424   0.256   0.000
 2019 169     2  22.70  34.60  22.90 -99.000   6.816   0.000   6.816 -99.000 -99.000 -99.000   1.017   0.000   1.017   0.000   0.000   13.51    7.71    0.00    7.71    0.00    0.00   0.835   0.110   0.036   0.014   0.007   0.007   0.004   0.002   0.001   0.001   0.000
 2019 170     3  19.10  33.90  24.20 -99.000   5.736   0.000   5.736 -99.000 -99.000 -99.000   5.736   0.000   5.736   0.000   0.000   19.25   13.45    0.00   13.45    0.00    0.00   1.066   0.803   0.730   0.537   0.426   0.662   0.507   0.420   0.365   0.221   0.000
 2019 171     4  17.90  29.10  24.00 -99.000   5.132   0.000   5.132 -99.000 -99.000 -99.000   5.132   0.000   5.132   0.000   0.000   24.38   18.58    0.00   18.58    0.00    0.00   1.012   0.719   0.641   0.469   0.374   0.582   0.447   0.370   0.323   0.195   0.000
 2019 172     5  14.80  28.80  23.40 -99.000   4.216   0.000   4.216 -99.000 -99.000 -99.000   4.216   0.000   4.216   0.000   0.000   28.59   22.79    0.00   22.79    0.00    0.00   0.913   0.607   0.518   0.372   0.294   0.458   0.352   0.292   0.255   0.154   0.000
 2019 173     6   9.80  29.30  22.80 -99.000   2.827   0.000   2.827 -99.000 -99.000 -99.000   2.827   0.000   2.827   0.000   0.000   31.42   25.62    0.00   25.62    0.00    0.00   0.654   0.425   0.348   0.245   0.188   0.292   0.225   0.187   0.163   0.099   0.000
 2019 174     7  21.60  29.90  21.80 -99.000   6.233   0.000   6.233 -99.000 -99.000 -99.000   6.233   0.000   6.233   0.000   0.000   37.65   31.85    0.00   31.85    0.00    0.00   1.410   0.943   0.786   0.558   0.423   0.638   0.492   0.409   0.357   0.216   0.000
 2019 175     8   9.50  27.00  22.50 -99.000   2.653   0.000   2.653 -99.000 -99.000 -99.000   2.653   0.000   2.653   0.000   0.000   40.31   34.51    0.00   34.51    0.00    0.00   0.584   0.409   0.339   0.242   0.185   0.271   0.208   0.173   0.151   0.092   0.000
 2019 176     9  14.30  30.10  21.70 -99.000   4.133   0.000   4.133 -99.000 -99.000 -99.000   4.133   0.000   4.133   0.000   0.000   44.44   38.64    0.00   38.64    0.00    0.00   0.939   0.636   0.527   0.378   0.289   0.419   0.315   0.262   0.229   0.139   0.000
 2019 177    10   9.40  28.60  21.90 -99.000   2.673   0.000   2.673 -99.000 -99.000 -99.000   2.673   0.000   2.673   0.000   0.000   47.11   41.31    0.00   41.31    0.00    0.00   0.593   0.424   0.344   0.246   0.189   0.274   0.202   0.167   0.146   0.088   0.000
 2019 178    11  13.60  27.40  21.90 -99.000   3.822   0.000   3.822 -99.000 -99.000 -99.000   3.822   0.000   3.822   0.000   0.000   50.93   45.14    0.00   45.14    0.00    0.00   0.844   0.611   0.496   0.354   0.272   0.394   0.288   0.234   0.205   0.124   0.000
 2019 179    12  16.60  28.40  21.20 -99.000   4.688   0.000   4.688 -99.000 -99.000 -99.000   4.688   0.000   4.688   0.000   0.000   55.62   49.82    0.00   49.82    0.00    0.00   1.027   0.729   0.607   0.439   0.340   0.491   0.363   0.288   0.251   0.152   0.000
 2019 180    13  18.00  30.70  21.50 -99.000   5.219   0.000   5.219 -99.000 -99.000 -99.000   5.219   0.000   5.219   0.000   0.000   60.84   55.04    0.00   55.04    0.00    0.00   1.071   0.777   0.680   0.502   0.393   0.570   0.426   0.338   0.288   0.175   0.000
 2019 181    14  20.70  30.30  22.10 -99.000   5.958   0.000   5.958 -99.000 -99.000 -99.000   5.958   0.000   5.958   0.000   0.000   66.80   61.00    0.00   61.00    0.00    0.00   1.171   0.864   0.771   0.575   0.456   0.669   0.505   0.405   0.337   0.204   0.000
 2019 182    15  13.60  29.20  22.30 -99.000   3.863   0.000   3.863 -99.000 -99.000 -99.000   3.863   0.000   3.863   0.000   0.000   70.66   64.86    0.00   64.86    0.00    0.00   0.774   0.550   0.492   0.367   0.292   0.435   0.330   0.268   0.222   0.133   0.000
 2019 183    16  13.40  29.30  22.60 -99.000   3.838   0.008   3.830 -99.000 -99.000 -99.000   3.838   0.008   3.830   0.000   0.000   74.50   68.70    0.01   68.69    0.00    0.00   0.785   0.542   0.481   0.358   0.285   0.429   0.327   0.268   0.223   0.131   0.001
 2019 184    17  18.40  30.90  22.10 -99.000   5.318   0.032   5.287 -99.000 -99.000 -99.000   5.318   0.032   5.287   0.000   0.000   79.82   74.02    0.04   73.98    0.00    0.00   1.077   0.749   0.663   0.493   0.391   0.592   0.453   0.373   0.315   0.181   0.003
 2019 185    18  16.60  28.20  22.90 -99.000   4.686   0.049   4.637 -99.000 -99.000 -99.000   4.685   0.049   4.637   0.000   0.000   84.51   78.71    0.09   78.62    0.00    0.00   0.998   0.673   0.573   0.421   0.333   0.505   0.386   0.319   0.274   0.155   0.005
 2019 186    19  15.50  29.30  22.30 -99.000   4.431   0.080   4.350 -99.000 -99.000 -99.000   4.430   0.080   4.350   0.000   0.000   88.94   83.14    0.17   82.97    0.00    0.00   0.950   0.641   0.540   0.393   0.308   0.467   0.357   0.295   0.255   0.144   0.008
 2019 187    20  20.10  29.80  22.10 -99.000   5.730   0.159   5.571 -99.000 -99.000 -99.000   5.730   0.159   5.571   0.000   0.000   94.67   88.87    0.33   88.54    0.00    0.00   1.075   0.811   0.717   0.526   0.413   0.624   0.476   0.393   0.342   0.194   0.016
 2019 188    21  18.10  29.90  22.60 -99.000   5.126   0.194   4.932 -99.000 -99.000 -99.000   5.125   0.194   4.932   0.000   0.000   99.79   93.99    0.52   93.47    0.00    0.00   0.894   0.705   0.638   0.473   0.374   0.567   0.434   0.357   0.312   0.176   0.019
 2019 189    22   6.80  27.80  22.20 -99.000   1.866   0.096   1.769 -99.000 -99.000 -99.000   1.865   0.096   1.769   0.000   0.000  101.66   95.86    0.62   95.24    0.00    0.00   0.334   0.249   0.225   0.168   0.133   0.203   0.156   0.128   0.112   0.063   0.010
 2019 190    23  15.60  26.80  21.30 -99.000   4.222   0.282   3.938 -99.000 -99.000 -99.000   4.220   0.282   3.938   0.000   0.000  105.88  100.08    0.90   99.18    0.00    0.00   0.825   0.554   0.489   0.361   0.285   0.439   0.335   0.275   0.240   0.136   0.028
 2019 191    24  18.20  31.50  21.00 -99.000   5.164   0.414   4.747 -99.000 -99.000 -99.000   5.162   0.414   4.747   0.000   0.000  111.04  105.24    1.31  103.93    0.00    0.00   0.963   0.675   0.595   0.439   0.346   0.534   0.406   0.333   0.292   0.165   0.041
 2019 192    25  11.50  26.40  21.90 -99.000   3.079   0.295   2.782 -99.000 -99.000 -99.000   3.077   0.295   2.782   0.000   0.000  114.12  108.32    1.61  106.71    0.00    0.00   0.582   0.428   0.348   0.252   0.197   0.302   0.228   0.188   0.164   0.093   0.030
 2019 193    26  15.10  27.60  21.00 -99.000   4.097   0.458   3.636 -99.000 -99.000 -99.000   4.095   0.458   3.636   0.000   0.000  118.22  112.41    2.07  110.34    0.00    0.00   0.808   0.565   0.459   0.327   0.252   0.381   0.287   0.235   0.206   0.116   0.046
 2019 194    27  21.20  28.50  19.90 -99.000   5.725   0.728   4.994 -99.000 -99.000 -99.000   5.721   0.728   4.994   0.000   0.000  123.94  118.13    2.79  115.34    0.00    0.00   1.066   0.745   0.641   0.463   0.358   0.536   0.406   0.329   0.287   0.162   0.073
 2019 195    28  18.40  30.20  21.20 -99.000   5.070   0.723   4.343 -99.000 -99.000 -99.000   5.066   0.723   4.343   0.000   0.000  129.02  123.20    3.52  119.68    0.00    0.00   0.914   0.679   0.566   0.404   0.311   0.459   0.348   0.282   0.243   0.138   0.072
 2019 196    29  19.40  30.10  22.00 -99.000   5.373   0.858   4.510 -99.000 -99.000 -99.000   5.369   0.858   4.510   0.000   0.000  134.39  128.57    4.38  124.19    0.00    0.00   0.952   0.691   0.594   0.426   0.327   0.476   0.360   0.293   0.250   0.141   0.086
 2019 197    30  16.10  28.20  22.20 -99.000   4.341   0.761   3.576 -99.000 -99.000 -99.000   4.337   0.761   3.576   0.000   0.000  138.73  132.90    5.14  127.77    0.00    0.00   0.727   0.525   0.464   0.343   0.269   0.391   0.296   0.241   0.206   0.114   0.076
 2019 198    31  20.30  30.50  21.60 -99.000   5.563   1.051   4.507 -99.000 -99.000 -99.000   5.558   1.051   4.507   0.000   0.000  144.29  138.46    6.19  132.27    0.00    0.00   0.876   0.646   0.579   0.434   0.345   0.508   0.385   0.315   0.270   0.149   0.105
 2019 199    32  12.00  28.50  23.00 -99.000   3.229   0.643   2.582 -99.000 -99.000 -99.000   3.226   0.643   2.582   0.000   0.000  147.52  141.69    6.83  134.86    0.00    0.00   0.522   0.363   0.324   0.243   0.194   0.290   0.221   0.181   0.156   0.087   0.064
 2019 200    33   6.40  25.20  21.10 -99.000   1.645   0.343   1.300 -99.000 -99.000 -99.000   1.643   0.343   1.300   0.000   0.000  149.17  143.33    7.17  136.16    0.00    0.00   0.287   0.190   0.159   0.117   0.093   0.140   0.107   0.088   0.076   0.043   0.034
 2019 201    34  18.40  28.30  20.90 -99.000   4.899   1.046   3.848 -99.000 -99.000 -99.000   4.894   1.046   3.848   0.000   0.000  154.07  148.22    8.22  140.00    0.00    0.00   0.854   0.572   0.476   0.346   0.272   0.407   0.311   0.256   0.222   0.130   0.105
 2019 202    35  14.90  30.00  20.80 -99.000   4.023   0.869   3.150 -99.000 -99.000 -99.000   4.019   0.869   3.150   0.000   0.000  158.09  152.24    9.09  143.15    0.00    0.00   0.638   0.458   0.399   0.293   0.231   0.346   0.264   0.218   0.189   0.113   0.087
 2019 203    36  13.80  26.80  21.60 -99.000   3.593   0.817   2.772 -99.000 -99.000 -99.000   3.589   0.817   2.772   0.000   0.000  161.68  155.83    9.91  145.93    0.00    0.00   0.587   0.399   0.345   0.255   0.201   0.301   0.230   0.190   0.165   0.100   0.082
 2019 204    37  17.00  29.40  21.60 -99.000   4.577   1.067   3.505 -99.000 -99.000 -99.000   4.571   1.067   3.505   0.000   0.000  166.26  160.40   10.97  149.43    0.00    0.00   0.781   0.501   0.429   0.316   0.250   0.375   0.286   0.236   0.205   0.125   0.107
 2019 205    38  17.50  29.40  21.80 -99.000   4.701   1.131   3.564 -99.000 -99.000 -99.000   4.695   1.131   3.564   0.000   0.000  170.96  165.10   12.10  152.99    0.00    0.00   0.770   0.509   0.439   0.324   0.257   0.386   0.295   0.244   0.212   0.129   0.113
 2019 206    39   4.20  29.40  22.70 -99.000   1.131   0.283   0.847 -99.000 -99.000 -99.000   1.129   0.283   0.847   0.000   0.000  172.09  166.23   12.39  153.84    0.00    0.00   0.184   0.124   0.104   0.076   0.060   0.091   0.069   0.057   0.050   0.030   0.028
 2019 207    40  16.20  27.90  22.10 -99.000   4.284   1.108   3.171 -99.000 -99.000 -99.000   4.279   1.108   3.171   0.000   0.000  176.37  170.51   13.49  157.01    0.00    0.00   0.711   0.488   0.393   0.282   0.220   0.329   0.251   0.207   0.180   0.110   0.111
 2019 208    41  11.80  28.90  21.50 -99.000   3.135   0.813   2.318 -99.000 -99.000 -99.000   3.131   0.813   2.318   0.000   0.000  179.51  173.64   14.31  159.33    0.00    0.00   0.510   0.349   0.291   0.210   0.164   0.243   0.185   0.153   0.132   0.081   0.081
 2019 209    42  14.60  27.00  22.10 -99.000   3.806   1.035   2.765 -99.000 -99.000 -99.000   3.800   1.035   2.765   0.000   0.000  183.32  177.44   15.34  162.09    0.00    0.00   0.603   0.430   0.352   0.252   0.195   0.287   0.218   0.179   0.155   0.094   0.104
 2019 210    43  13.80  26.20  21.50 -99.000   3.543   0.982   2.556 -99.000 -99.000 -99.000   3.538   0.982   2.556   0.000   0.000  186.86  180.98   16.32  164.65    0.00    0.00   0.549   0.389   0.330   0.237   0.184   0.267   0.203   0.166   0.144   0.088   0.098
 2019 211    44  12.70  28.80  20.20 -99.000   3.314   0.951   2.358 -99.000 -99.000 -99.000   3.309   0.951   2.358   0.000   0.000  190.17  184.28   17.28  167.01    0.00    0.00   0.490   0.344   0.301   0.223   0.175   0.254   0.193   0.158   0.137   0.083   0.095
 2019 212    45  16.50  28.90  20.60 -99.000   4.305   1.270   3.028 -99.000 -99.000 -99.000   4.298   1.270   3.028   0.000   0.000  194.48  188.58   18.55  170.04    0.00    0.00   0.642   0.443   0.381   0.282   0.223   0.325   0.247   0.203   0.175   0.107   0.127
 2019 213    46  17.30  28.20  22.40 -99.000   4.544   1.369   3.168 -99.000 -99.000 -99.000   4.537   1.369   3.168   0.000   0.000  199.02  193.12   19.92  173.20    0.00    0.00   0.691   0.472   0.393   0.289   0.229   0.336   0.256   0.211   0.182   0.111   0.137
 2019 214    47  12.50  27.40  22.10 -99.000   3.239   1.007   2.227 -99.000 -99.000 -99.000   3.234   1.007   2.227   0.000   0.000  202.26  196.35   20.92  175.43    0.00    0.00   0.478   0.348   0.279   0.202   0.159   0.233   0.178   0.146   0.127   0.077   0.101
 2019 215    48  15.20  27.30  21.50 -99.000   3.909   1.259   2.643 -99.000 -99.000 -99.000   3.902   1.259   2.643   0.000   0.000  206.17  200.26   22.18  178.07    0.00    0.00   0.564   0.425   0.336   0.241   0.187   0.273   0.208   0.171   0.148   0.091   0.126
 2019 216    49  14.60  28.00  20.30 -99.000   3.743   1.231   2.506 -99.000 -99.000 -99.000   3.737   1.231   2.506   0.000   0.000  209.91  203.99   23.41  180.58    0.00    0.00   0.537   0.382   0.320   0.232   0.181   0.262   0.200   0.164   0.142   0.087   0.123
 2019 217    50   9.10  24.80  21.40 -99.000   2.264   0.767   1.492 -99.000 -99.000 -99.000   2.259   0.767   1.492   0.000   0.000  212.18  206.25   24.18  182.07    0.00    0.00   0.311   0.227   0.195   0.141   0.111   0.159   0.118   0.096   0.083   0.051   0.077
 2019 218    51  10.50  26.00  21.60 -99.000   2.649   0.919   1.725 -99.000 -99.000 -99.000   2.644   0.919   1.725   0.000   0.000  214.83  208.90   25.10  183.80    0.00    0.00   0.358   0.253   0.223   0.166   0.132   0.186   0.139   0.112   0.096   0.059   0.092
 2019 219    52   5.80  26.70  21.40 -99.000   1.471   0.517   0.951 -99.000 -99.000 -99.000   1.468   0.517   0.951   0.000   0.000  216.30  210.36   25.62  184.75    0.00    0.00   0.196   0.143   0.122   0.090   0.072   0.101   0.077   0.063   0.054   0.033   0.052
 2019 220    53  11.80  26.60  21.40 -99.000   2.985   1.072   1.907 -99.000 -99.000 -99.000   2.979   1.072   1.907   0.000   0.000  219.28  213.34   26.69  186.65    0.00    0.00   0.386   0.290   0.245   0.178   0.142   0.210   0.157   0.126   0.107   0.066   0.107
 2019 221    54  15.80  26.60  21.70 -99.000   4.000   1.446   2.546 -99.000 -99.000 -99.000   3.993   1.446   2.546   0.000   0.000  223.28  217.33   28.13  189.20    0.00    0.00   0.513   0.368   0.321   0.239   0.190   0.282   0.218   0.175   0.148   0.092   0.145
 2019 222    55  14.70  27.30  21.50 -99.000   3.735   1.387   2.341 -99.000 -99.000 -99.000   3.728   1.387   2.341   0.000   0.000  227.02  221.06   29.52  191.54    0.00    0.00   0.452   0.326   0.291   0.221   0.178   0.261   0.205   0.170   0.145   0.091   0.139
 2019 223    56  12.80  28.20  20.20 -99.000   3.235   1.238   1.990 -99.000 -99.000 -99.000   3.229   1.238   1.990   0.000   0.000  230.25  224.29   30.76  193.53    0.00    0.00   0.373   0.272   0.246   0.187   0.152   0.224   0.177   0.148   0.129   0.082   0.124
 2019 224    57   9.60  26.70  21.90 -99.000   2.408   0.943   1.460 -99.000 -99.000 -99.000   2.403   0.943   1.460   0.000   0.000  232.66  226.69   31.70  194.99    0.00    0.00   0.275   0.199   0.179   0.136   0.110   0.165   0.129   0.109   0.096   0.062   0.094
 2019 225    58  18.90  28.80  21.30 -99.000   4.825   1.924   2.892 -99.000 -99.000 -99.000   4.815   1.924   2.892   0.000   0.000  237.49  231.51   33.63  197.88    0.00    0.00   0.543   0.395   0.354   0.267   0.217   0.327   0.256   0.217   0.191   0.124   0.192
 2019 226    59  16.60  27.90  21.40 -99.000   4.185   1.694   2.482 -99.000 -99.000 -99.000   4.176   1.694   2.482   0.000   0.000  241.67  235.69   35.32  200.37    0.00    0.00   0.457   0.338   0.305   0.230   0.186   0.284   0.222   0.187   0.166   0.107   0.169
 2019 227    60  11.30  26.20  21.80 -99.000   2.794   1.172   1.615 -99.000 -99.000 -99.000   2.787   1.172   1.615   0.000   0.000  244.46  238.47   36.49  201.98    0.00    0.00   0.319   0.220   0.196   0.147   0.118   0.182   0.141   0.119   0.106   0.068   0.117
 2019 228    61  12.00  27.60  21.20 -99.000   3.005   1.291   1.707 -99.000 -99.000 -99.000   2.998   1.291   1.707   0.000   0.000  247.47  241.47   37.78  203.69    0.00    0.00   0.370   0.235   0.204   0.151   0.120   0.186   0.144   0.121   0.107   0.069   0.129
 2019 229    62  16.30  25.40  21.70 -99.000   3.997   1.744   2.243 -99.000 -99.000 -99.000   3.988   1.744   2.243   0.000   0.000  251.47  245.46   39.53  205.93    0.00    0.00   0.499   0.330   0.270   0.196   0.154   0.237   0.183   0.153   0.135   0.086   0.174
 2019 230    63  14.20  28.50  21.10 -99.000   3.585   1.593   1.983 -99.000 -99.000 -99.000   3.576   1.593   1.983   0.000   0.000  255.05  249.03   41.12  207.91    0.00    0.00   0.442   0.298   0.243   0.175   0.136   0.207   0.159   0.133   0.117   0.073   0.159
 2019 231    64   7.90  24.90  19.90 -99.000   1.893   0.865   1.023 -99.000 -99.000 -99.000   1.888   0.865   1.023   0.000   0.000  256.94  250.92   41.99  208.94    0.00    0.00   0.224   0.159   0.130   0.092   0.070   0.105   0.081   0.067   0.059   0.036   0.086
 2019 232    65  13.50  28.20  19.20 -99.000   3.336   1.551   1.777 -99.000 -99.000 -99.000   3.328   1.551   1.777   0.000   0.000  260.28  254.25   43.54  210.71    0.00    0.00   0.383   0.288   0.233   0.162   0.123   0.180   0.137   0.113   0.098   0.061   0.155
 2019 233    66  10.60  27.10  21.20 -99.000   2.623   1.230   1.386 -99.000 -99.000 -99.000   2.616   1.230   1.386   0.000   0.000  262.90  256.87   44.77  212.10    0.00    0.00   0.291   0.220   0.187   0.133   0.099   0.141   0.106   0.087   0.076   0.047   0.123
 2019 234    67  18.20  28.20  20.60 -99.000   4.531   2.165   2.354 -99.000 -99.000 -99.000   4.520   2.165   2.354   0.000   0.000  267.43  261.39   46.93  214.45    0.00    0.00   0.486   0.366   0.320   0.230   0.176   0.244   0.182   0.147   0.127   0.078   0.217
 2019 235    68  17.00  26.50  21.10 -99.000   4.160   2.014   2.135 -99.000 -99.000 -99.000   4.149   2.014   2.135   0.000   0.000  271.59  265.54   48.95  216.59    0.00    0.00   0.430   0.326   0.285   0.205   0.162   0.233   0.171   0.137   0.116   0.071   0.201
 2019 236    69  11.60  25.90  20.30 -99.000   2.795   1.389   1.398 -99.000 -99.000 -99.000   2.787   1.389   1.398   0.000   0.000  274.39  268.32   50.34  217.99    0.00    0.00   0.275   0.201   0.180   0.135   0.108   0.156   0.119   0.095   0.080   0.049   0.139
 2019 237    70  15.10  27.50  20.50 -99.000   3.697   1.878   1.808 -99.000 -99.000 -99.000   3.687   1.878   1.808   0.000   0.000  278.09  272.01   52.21  219.80    0.00    0.00   0.335   0.252   0.229   0.175   0.142   0.206   0.160   0.131   0.111   0.069   0.188
 2019 238    71  16.80  26.60  21.00 -99.000   4.073   2.091   1.971 -99.000 -99.000 -99.000   4.062   2.091   1.971   0.000   0.000  282.16  276.07   54.30  221.77    0.00    0.00   0.356   0.269   0.246   0.188   0.154   0.227   0.177   0.147   0.127   0.079   0.209
 2019 239    72   8.20  28.20  20.70 -99.000   2.013   1.055   0.952 -99.000 -99.000 -99.000   2.007   1.055   0.952   0.000   0.000  284.17  278.08   55.36  222.72    0.00    0.00   0.182   0.138   0.123   0.091   0.071   0.104   0.080   0.067   0.058   0.037   0.106
 2019 240    73  18.60  27.10  21.70 -99.000   4.557   2.439   2.105 -99.000 -99.000 -99.000   4.544   2.439   2.105   0.000   0.000  288.73  282.62   57.80  224.82    0.00    0.00   0.431   0.324   0.278   0.200   0.153   0.216   0.167   0.138   0.121   0.077   0.244
 2019 241    74  15.80  27.90  21.10 -99.000   3.883   2.088   1.784 -99.000 -99.000 -99.000   3.872   2.088   1.784   0.000   0.000  292.61  286.49   59.89  226.61    0.00    0.00   0.365   0.259   0.228   0.171   0.134   0.189   0.146   0.121   0.105   0.067   0.209
 2019 242    75  20.80  29.10  21.10 -99.000   5.162   2.853   2.294 -99.000 -99.000 -99.000   5.147   2.853   2.294   0.000   0.000  297.77  291.64   62.74  228.90    0.00    0.00   0.475   0.324   0.285   0.216   0.173   0.248   0.190   0.158   0.138   0.088   0.285
 2019 243    76  14.00  29.20  22.30 -99.000   3.502   1.964   1.528 -99.000 -99.000 -99.000   3.492   1.964   1.528   0.000   0.000  301.28  295.13   64.70  230.43    0.00    0.00   0.319   0.212   0.187   0.141   0.114   0.167   0.129   0.107   0.093   0.059   0.196
 2019 244    77  16.10  27.00  21.70 -99.000   3.903   2.246   1.644 -99.000 -99.000 -99.000   3.891   2.246   1.644   0.000   0.000  305.18  299.02   66.95  232.07    0.00    0.00   0.353   0.228   0.199   0.149   0.120   0.178   0.138   0.115   0.101   0.064   0.225
 2019 245    78  16.10  28.80  21.10 -99.000   3.961   2.308   1.641 -99.000 -99.000 -99.000   3.949   2.308   1.641   0.000   0.000  309.14  302.97   69.26  233.71    0.00    0.00   0.327   0.230   0.202   0.151   0.121   0.182   0.141   0.118   0.103   0.065   0.231
 2019 246    79  16.40  30.00  20.90 -99.000   4.063   2.414   1.637 -99.000 -99.000 -99.000   4.051   2.414   1.637   0.000   0.000  313.20  307.02   71.67  235.35    0.00    0.00   0.330   0.228   0.200   0.150   0.120   0.182   0.141   0.118   0.103   0.065   0.241
 2019 247    80  16.70  27.10  22.20 -99.000   4.042   2.436   1.593 -99.000 -99.000 -99.000   4.030   2.436   1.593   0.000   0.000  317.25  311.05   74.11  236.95    0.00    0.00   0.344   0.226   0.192   0.142   0.113   0.172   0.133   0.111   0.098   0.062   0.244
 2019 248    81  14.50  28.50  22.00 -99.000   3.559   2.177   1.371 -99.000 -99.000 -99.000   3.548   2.177   1.371   0.000   0.000  320.80  314.60   76.28  238.32    0.00    0.00   0.307   0.198   0.165   0.121   0.095   0.146   0.112   0.094   0.082   0.052   0.218
 2019 249    82  20.90  28.40  22.20 -99.000   5.121   3.188   1.916 -99.000 -99.000 -99.000   5.104   3.188   1.916   0.000   0.000  325.93  319.71   79.47  240.23    0.00    0.00   0.420   0.275   0.234   0.171   0.134   0.205   0.158   0.131   0.115   0.072   0.319
 2019 250    83  18.90  28.80  21.80 -99.000   4.626   2.916   1.696 -99.000 -99.000 -99.000   4.611   2.916   1.696   0.000   0.000  330.55  324.32   82.39  241.93    0.00    0.00   0.364   0.241   0.208   0.153   0.120   0.184   0.141   0.118   0.103   0.064   0.292
 2019 251    84  16.10  26.00  21.20 -99.000   3.794   2.440   1.341 -99.000 -99.000 -99.000   3.781   2.440   1.341   0.000   0.000  334.35  328.10   84.83  243.27    0.00    0.00   0.296   0.194   0.163   0.119   0.093   0.144   0.110   0.091   0.080   0.049   0.244
 2019 252    85  17.10  28.10  21.10 -99.000   4.120   2.690   1.416 -99.000 -99.000 -99.000   4.106   2.690   1.416   0.000   0.000  338.47  332.20   87.52  244.69    0.00    0.00   0.310   0.218   0.185   0.129   0.097   0.145   0.111   0.092   0.080   0.049   0.269
 2019 253    86  14.30  28.50  20.80 -99.000   3.448   2.280   1.155 -99.000 -99.000 -99.000   3.435   2.280   1.155   0.000   0.000  341.91  335.64   89.80  245.84    0.00    0.00   0.247   0.174   0.154   0.111   0.083   0.119   0.090   0.074   0.064   0.039   0.228
 2019 254    87  18.90  26.40  21.50 -99.000   4.467   2.995   1.455 -99.000 -99.000 -99.000   4.450   2.995   1.455   0.000   0.000  346.38  340.09   92.79  247.30    0.00    0.00   0.314   0.211   0.186   0.139   0.107   0.154   0.116   0.095   0.082   0.050   0.300
 2019 255    88  19.80  29.20  21.00 -99.000   4.804   3.253   1.533 -99.000 -99.000 -99.000   4.787   3.253   1.533   0.000   0.000  351.18  344.88   96.05  248.83    0.00    0.00   0.303   0.218   0.195   0.147   0.117   0.170   0.129   0.106   0.091   0.056   0.325
 2019 256    89  18.80  27.60  21.70 -99.000   4.490   3.083   1.390 -99.000 -99.000 -99.000   4.473   3.083   1.390   0.000   0.000  355.67  349.35   99.13  250.22    0.00    0.00   0.290   0.194   0.172   0.129   0.103   0.154   0.118   0.097   0.083   0.051   0.308
 2019 257    90  15.90  27.60  22.00 -99.000   3.806   2.649   1.143 -99.000 -99.000 -99.000   3.792   2.649   1.143   0.000   0.000  359.48  353.14  101.78  251.36    0.00    0.00   0.245   0.168   0.147   0.108   0.084   0.120   0.092   0.075   0.065   0.040   0.265
 2019 258    91  16.30  26.70  22.00 -99.000   3.858   2.715   1.129 -99.000 -99.000 -99.000   3.844   2.715   1.129   0.000   0.000  363.34  356.98  104.49  252.49    0.00    0.00   0.230   0.173   0.152   0.109   0.084   0.120   0.089   0.072   0.062   0.038   0.271
 2019 259    92  12.70  29.40  21.30 -99.000   3.078   2.187   0.880 -99.000 -99.000 -99.000   3.066   2.187   0.880   0.000   0.000  366.42  360.05  106.68  253.37    0.00    0.00   0.181   0.129   0.113   0.084   0.067   0.096   0.072   0.058   0.049   0.030   0.219
 2019 260    93  18.70  29.40  21.30 -99.000   4.527   3.250   1.259 -99.000 -99.000 -99.000   4.510   3.250   1.259   0.000   0.000  370.94  364.56  109.93  254.63    0.00    0.00   0.265   0.178   0.156   0.118   0.095   0.137   0.106   0.086   0.073   0.045   0.325
 2019 261    94  16.10  26.20  22.00 -99.000   3.778   2.728   1.036 -99.000 -99.000 -99.000   3.763   2.728   1.036   0.000   0.000  374.72  368.32  112.66  255.67    0.00    0.00   0.218   0.148   0.127   0.095   0.076   0.112   0.087   0.072   0.062   0.038   0.273
 2019 262    95  16.10  28.80  21.20 -99.000   3.862   2.815   1.032 -99.000 -99.000 -99.000   3.847   2.815   1.032   0.000   0.000  378.58  372.17  115.47  256.70    0.00    0.00   0.218   0.155   0.126   0.093   0.075   0.109   0.085   0.071   0.062   0.039   0.281
 2019 263    96  19.40  28.00  22.20 -99.000   4.642   3.411   1.214 -99.000 -99.000 -99.000   4.624   3.411   1.214   0.000   0.000  383.22  376.80  118.88  257.91    0.00    0.00   0.253   0.187   0.154   0.110   0.086   0.126   0.098   0.082   0.071   0.045   0.341
 2019 264    97  18.80  29.20  22.00 -99.000   4.547   3.365   1.165 -99.000 -99.000 -99.000   4.530   3.365   1.165   0.000   0.000  387.77  381.33  122.25  259.08    0.00    0.00   0.244   0.173   0.149   0.108   0.084   0.122   0.094   0.078   0.068   0.043   0.337
 2019 265    98  21.40  29.10  22.20 -99.000   5.174   3.855   1.299 -99.000 -99.000 -99.000   5.154   3.855   1.299   0.000   0.000  392.95  386.48  126.10  260.38    0.00    0.00   0.277   0.186   0.162   0.120   0.095   0.138   0.106   0.089   0.077   0.049   0.386
 2019 266    99  17.90  28.80  22.10 -99.000   4.306   3.235   1.054 -99.000 -99.000 -99.000   4.289   3.235   1.054   0.000   0.000  397.25  390.77  129.34  261.43    0.00    0.00   0.208   0.148   0.132   0.099   0.079   0.117   0.090   0.075   0.066   0.042   0.323
 2019 267   100  20.60  29.50  22.90 -99.000   5.014   3.792   1.203 -99.000 -99.000 -99.000   4.994   3.792   1.203   0.000   0.000  402.27  395.76  133.13  262.63    0.00    0.00   0.231   0.167   0.149   0.112   0.090   0.136   0.105   0.087   0.077   0.048   0.379
 2019 268   101  18.80  29.80  22.60 -99.000   4.576   3.482   1.077 -99.000 -99.000 -99.000   4.558   3.482   1.077   0.000   0.000  406.84  400.32  136.61  263.71    0.00    0.00   0.211   0.148   0.132   0.099   0.079   0.122   0.094   0.079   0.069   0.044   0.348
 2019 269   102  14.90  26.40  22.60 -99.000   3.494   2.672   0.807 -99.000 -99.000 -99.000   3.479   2.672   0.807   0.000   0.000  410.33  403.80  139.28  264.52    0.00    0.00   0.174   0.113   0.097   0.072   0.057   0.088   0.068   0.057   0.050   0.032   0.267
 2019 270   103  16.90  27.40  21.90 -99.000   3.988   3.066   0.905 -99.000 -99.000 -99.000   3.972   3.066   0.905   0.000   0.000  414.32  407.77  142.35  265.42    0.00    0.00   0.200   0.138   0.114   0.080   0.061   0.094   0.072   0.060   0.053   0.033   0.307
 2019 271   104  22.50  28.60  21.00 -99.000   5.341   4.131   1.188 -99.000 -99.000 -99.000   5.319   4.131   1.188   0.000   0.000  419.66  413.09  146.48  266.61    0.00    0.00   0.241   0.181   0.157   0.111   0.084   0.125   0.096   0.080   0.070   0.043   0.413
 2019 272   105  15.00  28.60  21.50 -99.000   3.568   2.776   0.778 -99.000 -99.000 -99.000   3.554   2.776   0.778   0.000   0.000  423.23  416.65  149.26  267.39    0.00    0.00   0.158   0.113   0.100   0.073   0.056   0.084   0.064   0.053   0.046   0.029   0.278
 2019 273   106  17.60  27.10  22.10 -99.000   4.136   3.230   0.889 -99.000 -99.000 -99.000   4.119   3.230   0.889   0.000   0.000  427.37  420.76  152.49  268.28    0.00    0.00   0.192   0.127   0.111   0.082   0.064   0.095   0.073   0.060   0.052   0.032   0.323
 2019 274   107  13.90  27.20  21.50 -99.000   3.256   2.553   0.689 -99.000 -99.000 -99.000   3.242   2.553   0.689   0.000   0.000  430.62  424.01  155.04  268.97    0.00    0.00   0.154   0.100   0.084   0.062   0.049   0.073   0.056   0.046   0.040   0.025   0.255
 2019 275   108  13.50  27.70  21.20 -99.000   3.171   2.499   0.659 -99.000 -99.000 -99.000   3.158   2.499   0.659   0.000   0.000  433.79  427.16  157.54  269.62    0.00    0.00   0.146   0.100   0.081   0.059   0.046   0.069   0.053   0.044   0.038   0.023   0.250
 2019 276   109  15.40  29.40  21.50 -99.000   3.692   2.924   0.753 -99.000 -99.000 -99.000   3.676   2.924   0.753   0.000   0.000  437.49  430.84  160.46  270.38    0.00    0.00   0.153   0.112   0.096   0.070   0.054   0.081   0.062   0.051   0.045   0.027   0.292
 2019 277   110  19.60  26.60  21.70 -99.000   4.557   3.623   0.915 -99.000 -99.000 -99.000   4.537   3.623   0.915   0.000   0.000  442.04  435.38  164.09  271.29    0.00    0.00   0.182   0.132   0.116   0.086   0.067   0.101   0.077   0.064   0.056   0.034   0.362
 2019 278   111  16.70  29.10  20.80 -99.000   3.963   3.162   0.784 -99.000 -99.000 -99.000   3.946   3.162   0.784   0.000   0.000  446.01  439.32  167.25  272.07    0.00    0.00   0.148   0.111   0.099   0.074   0.058   0.089   0.068   0.057   0.049   0.030   0.316
 2019 279   112  14.90  27.80  21.40 -99.000   3.498   2.802   0.681 -99.000 -99.000 -99.000   3.483   2.802   0.681   0.000   0.000  449.50  442.81  170.05  272.76    0.00    0.00   0.141   0.098   0.084   0.062   0.049   0.075   0.058   0.048   0.042   0.025   0.280
 2019 280   113  15.30  25.20  21.80 -99.000   3.503   2.814   0.674 -99.000 -99.000 -99.000   3.487   2.814   0.674   0.000   0.000  453.01  446.29  172.86  273.43    0.00    0.00   0.150   0.105   0.083   0.059   0.046   0.070   0.054   0.044   0.039   0.024   0.281
 2019 281   114  12.70  27.00  20.80 -99.000   2.944   2.373   0.558 -99.000 -99.000 -99.000   2.931   2.373   0.558   0.000   0.000  455.95  449.22  175.24  273.99    0.00    0.00   0.122   0.088   0.071   0.050   0.038   0.057   0.044   0.036   0.032   0.019   0.237
 2019 282   115  18.70  27.70  20.30 -99.000   4.351   3.517   0.815 -99.000 -99.000 -99.000   4.332   3.517   0.815   0.000   0.000  460.30  453.56  178.75  274.80    0.00    0.00   0.173   0.121   0.104   0.075   0.058   0.086   0.066   0.054   0.047   0.029   0.352
 2019 283   116  18.40  28.50  21.30 -99.000   4.348   3.526   0.803 -99.000 -99.000 -99.000   4.330   3.526   0.803   0.000   0.000  464.65  457.89  182.28  275.61    0.00    0.00   0.171   0.123   0.101   0.074   0.057   0.085   0.064   0.053   0.046   0.028   0.353
 2019 284   117  19.00  28.60  22.10 -99.000   4.522   3.676   0.826 -99.000 -99.000 -99.000   4.503   3.676   0.826   0.000   0.000  469.17  462.39  185.96  276.43    0.00    0.00   0.176   0.131   0.109   0.077   0.058   0.085   0.064   0.053   0.046   0.028   0.368
 2019 285   118  17.90  27.30  22.20 -99.000   4.201   3.425   0.758 -99.000 -99.000 -99.000   4.183   3.425   0.758   0.000   0.000  473.37  466.57  189.38  277.19    0.00    0.00   0.152   0.112   0.101   0.074   0.056   0.081   0.061   0.050   0.043   0.026   0.343
 2019 286   119  18.90  28.60  22.10 -99.000   4.493   3.674   0.800 -99.000 -99.000 -99.000   4.474   3.674   0.800   0.000   0.000  477.87  471.05  193.06  277.99    0.00    0.00   0.162   0.115   0.102   0.077   0.060   0.087   0.066   0.054   0.047   0.029   0.367
 2019 287   120  20.70  30.40  21.40 -99.000   4.992   4.092   0.879 -99.000 -99.000 -99.000   4.971   4.092   0.879   0.000   0.000  482.86  476.02  197.15  278.87    0.00    0.00   0.185   0.123   0.109   0.082   0.065   0.096   0.074   0.061   0.052   0.032   0.409
 2019 288   121  18.20  28.00  22.30 -99.000   4.303   3.536   0.748 -99.000 -99.000 -99.000   4.285   3.536   0.748   0.000   0.000  487.16  480.30  200.68  279.62    0.00    0.00   0.162   0.108   0.091   0.068   0.054   0.081   0.062   0.051   0.044   0.027   0.354
 2019 289   122   8.40  27.70  22.10 -99.000   1.977   1.629   0.339 -99.000 -99.000 -99.000   1.968   1.629   0.339   0.000   0.000  489.14  482.27  202.31  279.96    0.00    0.00   0.073   0.052   0.043   0.031   0.024   0.035   0.027   0.023   0.020   0.012   0.163
 2019 290   123  19.30  27.60  21.60 -99.000   4.519   3.731   0.768 -99.000 -99.000 -99.000   4.499   3.731   0.768   0.000   0.000  493.66  486.77  206.05  280.72    0.00    0.00   0.163   0.122   0.102   0.071   0.054   0.078   0.060   0.049   0.043   0.027   0.373
 2019 291   124  17.70  27.10  21.40 -99.000   4.114   3.404   0.692 -99.000 -99.000 -99.000   4.096   3.404   0.692   0.000   0.000  497.77  490.87  209.45  281.42    0.00    0.00   0.145   0.102   0.090   0.066   0.050   0.073   0.056   0.046   0.040   0.025   0.340
 2019 292   125  15.00  26.60  21.10 -99.000   3.458   2.867   0.575 -99.000 -99.000 -99.000   3.442   2.867   0.575   0.000   0.000  501.23  494.31  212.32  281.99    0.00    0.00   0.119   0.082   0.073   0.054   0.043   0.062   0.047   0.039   0.034   0.021   0.287
 2019 293   126  19.50  25.50  21.10 -99.000   4.439   3.688   0.730 -99.000 -99.000 -99.000   4.418   3.688   0.730   0.000   0.000  505.67  498.73  216.00  282.72    0.00    0.00   0.151   0.103   0.091   0.068   0.054   0.080   0.061   0.051   0.044   0.027   0.369
 2019 294   127  14.70  29.80  20.10 -99.000   3.483   2.900   0.568 -99.000 -99.000 -99.000   3.468   2.900   0.568   0.000   0.000  509.15  502.19  218.90  283.29    0.00    0.00   0.108   0.079   0.071   0.053   0.043   0.064   0.050   0.041   0.036   0.022   0.290
 2019 295   128  18.90  30.40  21.10 -99.000   4.538   3.786   0.732 -99.000 -99.000 -99.000   4.518   3.786   0.732   0.000   0.000  513.69  506.71  222.69  284.02    0.00    0.00   0.133   0.102   0.092   0.069   0.055   0.085   0.065   0.054   0.047   0.030   0.379
 2019 296   129  18.70  29.60  21.90 -99.000   4.475   3.740   0.715 -99.000 -99.000 -99.000   4.455   3.740   0.715   0.000   0.000  518.16  511.17  226.43  284.74    0.00    0.00   0.147   0.098   0.087   0.065   0.052   0.080   0.062   0.052   0.045   0.028   0.374
 2019 297   130   7.80  27.30  21.90 -99.000   1.822   1.525   0.289 -99.000 -99.000 -99.000   1.814   1.525   0.289   0.000   0.000  519.99  512.98  227.95  285.03    0.00    0.00   0.065   0.043   0.035   0.025   0.020   0.030   0.023   0.019   0.017   0.011   0.152
 2019 298   131  18.40  28.70  20.80 -99.000   4.329   3.631   0.678 -99.000 -99.000 -99.000   4.309   3.631   0.678   0.000   0.000  524.31  517.29  231.59  285.70    0.00    0.00   0.146   0.109   0.090   0.062   0.046   0.068   0.052   0.043   0.038   0.023   0.363
 2019 299   132  14.70  27.80  21.50 -99.000   3.441   2.891   0.534 -99.000 -99.000 -99.000   3.425   2.891   0.534   0.000   0.000  527.76  520.72  234.48  286.24    0.00    0.00   0.112   0.084   0.073   0.051   0.038   0.054   0.041   0.034   0.029   0.018   0.289
 2019 300   133  13.40  26.20  21.80 -99.000   3.088   2.598   0.475 -99.000 -99.000 -99.000   3.073   2.598   0.475   0.000   0.000  530.84  523.79  237.08  286.71    0.00    0.00   0.097   0.073   0.064   0.045   0.035   0.052   0.038   0.030   0.026   0.016   0.260
 2019 301   134  15.90  26.40  20.90 -99.000   3.647   3.074   0.556 -99.000 -99.000 -99.000   3.630   3.074   0.556   0.000   0.000  534.49  527.42  240.15  287.27    0.00    0.00   0.108   0.080   0.072   0.054   0.043   0.063   0.048   0.038   0.032   0.020   0.307
 2019 302   135  14.90  25.90  20.70 -99.000   3.391   2.863   0.512 -99.000 -99.000 -99.000   3.375   2.863   0.512   0.000   0.000  537.88  530.79  243.01  287.78    0.00    0.00   0.099   0.071   0.064   0.049   0.039   0.058   0.045   0.037   0.031   0.019   0.286
 2019 303   136  20.40  30.30  20.00 -99.000   4.849   4.101   0.727 -99.000 -99.000 -99.000   4.827   4.101   0.727   0.000   0.000  542.73  535.62  247.11  288.51    0.00    0.00   0.132   0.099   0.090   0.069   0.056   0.084   0.066   0.055   0.047   0.029   0.410
 2019 304   137  18.80  28.90  21.10 -99.000   4.434   3.755   0.659 -99.000 -99.000 -99.000   4.414   3.755   0.659   0.000   0.000  547.16  540.04  250.87  289.17    0.00    0.00   0.115   0.089   0.081   0.062   0.051   0.077   0.061   0.051   0.044   0.028   0.376
 2019 305   138  22.40  29.90  21.30 -99.000   5.347   4.535   0.788 -99.000 -99.000 -99.000   5.323   4.535   0.788   0.000   0.000  552.51  545.36  255.40  289.96    0.00    0.00   0.135   0.105   0.097   0.074   0.060   0.093   0.073   0.062   0.054   0.035   0.453
 2019 306   139  19.10  27.20  21.20 -99.000   4.422   3.754   0.647 -99.000 -99.000 -99.000   4.401   3.754   0.647   0.000   0.000  556.93  549.76  259.16  290.60    0.00    0.00   0.121   0.086   0.077   0.059   0.048   0.075   0.059   0.050   0.044   0.028   0.375
 2019 307   140  18.30  30.60  21.70 -99.000   4.415   3.755   0.640 -99.000 -99.000 -99.000   4.396   3.755   0.640   0.000   0.000  561.35  554.16  262.91  291.24    0.00    0.00   0.127   0.087   0.074   0.057   0.046   0.073   0.057   0.048   0.043   0.027   0.376
 2019 308   141  23.70  31.60  20.80 -99.000   5.740   4.889   0.826 -99.000 -99.000 -99.000   5.715   4.889   0.826   0.000   0.000  567.09  559.87  267.80  292.07    0.00    0.00   0.154   0.114   0.096   0.075   0.061   0.098   0.075   0.063   0.055   0.034   0.489
 2019 309   142  22.90  31.70  20.60 -99.000   5.542   4.727   0.791 -99.000 -99.000 -99.000   5.518   4.727   0.791   0.000   0.000  572.63  565.39  272.53  292.86    0.00    0.00   0.141   0.108   0.091   0.072   0.059   0.097   0.074   0.062   0.054   0.033   0.473
 2019 310   143  23.10  31.90  20.90 -99.000   5.612   4.794   0.794 -99.000 -99.000 -99.000   5.588   4.794   0.794   0.000   0.000  578.24  570.98  277.32  293.65    0.00    0.00   0.133   0.104   0.092   0.073   0.059   0.102   0.078   0.064   0.056   0.034   0.479
 2019 311   144  22.60  31.20  21.10 -99.000   5.456   4.666   0.766 -99.000 -99.000 -99.000   5.038   4.272   0.766   0.000   0.000  583.70  576.01  281.59  294.42    0.00    0.00   0.116   0.098   0.090   0.071   0.057   0.102   0.078   0.065   0.056   0.034   0.427
 2019 312   145  23.30  31.50  20.20 -99.000   5.606   4.799   0.782 -99.000 -99.000 -99.000   3.084   2.302   0.782   0.000   0.000  589.30  579.10  283.90  295.20    0.00    0.00   0.115   0.097   0.091   0.071   0.057   0.107   0.082   0.068   0.059   0.035   0.230
 2019 313   146  21.10  31.70  18.40 -99.000   5.021   4.304   0.694 -99.000 -99.000 -99.000   2.313   1.619   0.694   0.000   0.000  594.32  581.41  285.52  295.90    0.00    0.00   0.100   0.085   0.080   0.063   0.050   0.096   0.074   0.061   0.053   0.032   0.162
 2019 314   147  18.00  31.00  21.80 -99.000   4.355   3.739   0.598 -99.000 -99.000 -99.000   1.851   1.253   0.598   0.000   0.000  598.68  583.26  286.77  296.49    0.00    0.00   0.086   0.072   0.068   0.054   0.043   0.084   0.064   0.053   0.046   0.028   0.125
 2019 315   148  18.60  30.80  21.50 -99.000   4.481   3.850   0.611 -99.000 -99.000 -99.000   1.656   1.045   0.611   0.000   0.000  603.16  584.92  287.81  297.11    0.00    0.00   0.091   0.073   0.069   0.054   0.043   0.086   0.065   0.054   0.047   0.029   0.105
 2019 316   149  19.00  29.40  22.10 -99.000   4.529   3.894   0.614 -99.000 -99.000 -99.000   1.590   0.975   0.614   0.000   0.000  607.69  586.51  288.79  297.72    0.00    0.00   0.129   0.080   0.062   0.049   0.039   0.078   0.059   0.049   0.043   0.026   0.098
 2019 317   150  15.40  29.50  22.30 -99.000   3.685   3.172   0.497 -99.000 -99.000 -99.000   3.669   3.172   0.497   0.000   0.000  611.37  590.18  291.96  298.22    0.00    0.00   0.122   0.080   0.052   0.034   0.027   0.055   0.042   0.035   0.030   0.018   0.317
 2019 318   151  16.90  31.40  21.50 -99.000   4.103   3.535   0.550 -99.000 -99.000 -99.000   4.085   3.535   0.550   0.000   0.000  615.48  594.26  295.50  298.77    0.00    0.00   0.117   0.089   0.069   0.039   0.030   0.062   0.047   0.040   0.034   0.021   0.353
 2019 319   152  20.30  31.10  21.10 -99.000   4.896   4.221   0.654 -99.000 -99.000 -99.000   4.875   4.221   0.654   0.000   0.000  620.37  599.14  299.72  299.42    0.00    0.00   0.128   0.100   0.086   0.050   0.037   0.077   0.059   0.049   0.042   0.026   0.422
 2019 320   153  22.40  31.40  21.40 -99.000   5.429   4.685   0.721 -99.000 -99.000 -99.000   5.406   4.685   0.721   0.000   0.000  625.80  604.54  304.40  300.14    0.00    0.00   0.133   0.107   0.093   0.058   0.042   0.087   0.067   0.056   0.048   0.029   0.468
 2019 321   154  22.40  32.00  20.30 -99.000   5.420   4.680   0.717 -99.000 -99.000 -99.000   5.396   4.680   0.717   0.000   0.000  631.22  609.94  309.08  300.86    0.00    0.00   0.585   0.081   0.026   0.009   0.004   0.006   0.003   0.002   0.001   0.001   0.468
 2019 322   155  22.50  31.50  20.40 -99.000   5.417   4.680   0.713 -99.000 -99.000 -99.000   4.593   3.880   0.713   0.000   0.000  636.64  614.53  312.96  301.57    0.00    0.00   0.569   0.087   0.028   0.010   0.005   0.007   0.003   0.002   0.001   0.001   0.388
 2019 323   156  22.20  32.10  20.80 -99.000   5.393   4.663   0.707 -99.000 -99.000 -99.000   2.301   1.604   0.697   0.000   0.000  642.03  616.83  314.57  302.27    0.00    0.00   0.551   0.086   0.029   0.011   0.005   0.007   0.004   0.002   0.001   0.001   0.160
 2019 324   157  16.70  32.60  20.90 -99.000   4.081   3.531   0.532 -99.000 -99.000 -99.000   1.696   1.164   0.532   0.000   0.000  646.11  618.53  315.73  302.80    0.00    0.00   0.413   0.069   0.024   0.009   0.005   0.006   0.003   0.002   0.001   0.001   0.116
 2019 325   158  14.50  31.50  21.20 -99.000   3.509   3.039   0.455 -99.000 -99.000 -99.000   1.393   0.938   0.455   0.000   0.000  649.62  619.92  316.67  303.25    0.00    0.00   0.349   0.061   0.021   0.008   0.004   0.005   0.003   0.002   0.001   0.001   0.094
 2019 326   159  17.50  30.00  21.90 -99.000   4.188   3.629   0.540 -99.000 -99.000 -99.000   1.329   0.789   0.540   0.000   0.000  653.81  621.25  317.46  303.79    0.00    0.00   0.410   0.075   0.026   0.010   0.005   0.007   0.003   0.002   0.001   0.001   0.079
 2019 327   160  19.30  32.60  21.20 -99.000   4.724   4.096   0.608 -99.000 -99.000 -99.000   1.255   0.721   0.534   0.000   0.000  658.53  622.51  318.18  304.33    0.00    0.00   0.398   0.078   0.027   0.011   0.005   0.007   0.004   0.002   0.001   0.001   0.072
 2019 328   161  22.60  31.90  21.00 -99.000   5.483   4.753   0.706 -99.000 -99.000 -99.000   1.169   0.672   0.497   0.000   0.000  664.02  623.67  318.85  304.83    0.00    0.00   0.362   0.077   0.027   0.011   0.005   0.007   0.004   0.002   0.001   0.001   0.067
 2019 329   162  22.60  32.00  19.10 -99.000   5.415   4.690   0.701 -99.000 -99.000 -99.000   1.090   0.627   0.463   0.000   0.000  669.43  624.76  319.48  305.29    0.00    0.00   0.330   0.076   0.026   0.011   0.005   0.007   0.004   0.002   0.001   0.001   0.063
 2019 330   163  22.30  32.30  20.00 -99.000   5.395   4.665   0.706 -99.000 -99.000 -99.000   1.022   0.590   0.432   0.000   0.000  674.83  625.79  320.07  305.72    0.00    0.00   0.301   0.075   0.026   0.011   0.005   0.007   0.004   0.002   0.001   0.001   0.059
 2019 331   164  22.60  31.60  18.10 -99.000   5.353   4.618   0.710 -99.000 -99.000 -99.000   0.961   0.558   0.404   0.000   0.000  680.18  626.75  320.62  306.12    0.00    0.00   0.274   0.074   0.026   0.010   0.005   0.007   0.004   0.002   0.001   0.001   0.056
 2019 332   165  22.40  31.60  16.20 -99.000   5.233   4.504   0.704 -99.000 -99.000 -99.000   0.908   0.530   0.378   0.000   0.000  685.41  627.66  321.15  306.50    0.00    0.00   0.249   0.073   0.025   0.010   0.005   0.007   0.004   0.002   0.001   0.001   0.053
 2019 333   166  22.40  31.50  17.10 -99.000   5.262   4.519   0.719 -99.000 -99.000 -99.000   0.860   0.506   0.354   0.000   0.000  690.68  628.52  321.66  306.86    0.00    0.00   0.227   0.072   0.025   0.010   0.005   0.007   0.004   0.002   0.001   0.001   0.051
 2019 334   167  22.40  32.00  17.30 -99.000   5.299   4.540   0.735 -99.000 -99.000 -99.000   0.818   0.485   0.333   0.000   0.000  695.97  629.33  322.15  307.19    0.00    0.00   0.207   0.071   0.025   0.010   0.005   0.007   0.004   0.002   0.001   0.001   0.049
 2019 335   168  21.40  31.00  16.60 -99.000   4.982   4.257   0.702 -99.000 -99.000 -99.000   0.780   0.467   0.313   0.000   0.000  700.96  630.11  322.61  307.50    0.00    0.00   0.188   0.070   0.025   0.010   0.005   0.007   0.004   0.002   0.001   0.001   0.047
 2019 336   169  22.00  30.60  17.60 -99.000   5.138   4.376   0.737 -99.000 -99.000 -99.000   0.746   0.450   0.295   0.000   0.000  706.09  630.86  323.06  307.80    0.00    0.00   0.171   0.069   0.025   0.010   0.005   0.007   0.004   0.002   0.001   0.001   0.045
 2019 337   170  18.20  30.40  18.50 -99.000   4.269   3.626   0.624 -99.000 -99.000 -99.000   0.715   0.436   0.279   0.000   0.000  710.36  631.57  323.50  308.08    0.00    0.00   0.156   0.069   0.024   0.010   0.005   0.007   0.004   0.002   0.001   0.001   0.044
 2019 338   171  19.90  31.00  17.40 -99.000   4.662   3.948   0.692 -99.000 -99.000 -99.000   0.688   0.423   0.264   0.000   0.000  715.02  632.26  323.92  308.34    0.00    0.00   0.142   0.068   0.024   0.010   0.005   0.007   0.004   0.002   0.001   0.001   0.042
 2019 339   172  21.70  31.50  18.10 -99.000   5.138   4.338   0.776 -99.000 -99.000 -99.000   0.663   0.412   0.251   0.000   0.000  720.16  632.93  324.33  308.59    0.00    0.00   0.129   0.067   0.024   0.010   0.005   0.007   0.004   0.002   0.001   0.001   0.041
 2019 340   173  22.60  31.20  16.20 -99.000   5.260   4.430   0.805 -99.000 -99.000 -99.000   0.640   0.402   0.238   0.000   0.000  725.42  633.57  324.74  308.83    0.00    0.00   0.118   0.066   0.024   0.010   0.005   0.007   0.004   0.002   0.001   0.001   0.040
 2019 341   174  22.60  31.60  14.90 -99.000   5.233   4.398   0.810 -99.000 -99.000 -99.000   0.620   0.393   0.227   0.000   0.000  730.66  634.19  325.13  309.06    0.00    0.00   0.107   0.066   0.024   0.010   0.005   0.007   0.004   0.002   0.001   0.001   0.039
 2019 342   175  22.50  31.90  16.30 -99.000   5.282   4.431   0.826 -99.000 -99.000 -99.000   0.602   0.386   0.216   0.000   0.000  735.94  634.79  325.51  309.27    0.00    0.00   0.098   0.065   0.024   0.010   0.005   0.007   0.004   0.002   0.001   0.001   0.039
 2019 343   176  22.90  31.30  15.20 -99.000   5.298   4.435   0.838 -99.000 -99.000 -99.000   0.586   0.379   0.207   0.000   0.000  741.24  635.37  325.89  309.48    0.00    0.00   0.089   0.065   0.023   0.010   0.005   0.007   0.004   0.002   0.001   0.001   0.038
 2019 344   177  22.30  30.30  15.30 -99.000   5.105   4.266   0.815 -99.000 -99.000 -99.000   0.572   0.374   0.198   0.000   0.000  746.34  635.95  326.27  309.68    0.00    0.00   0.081   0.064   0.023   0.010   0.005   0.007   0.004   0.002   0.001   0.001   0.037
 2019 345   178  22.00  31.30  16.50 -99.000   5.139   4.288   0.827 -99.000 -99.000 -99.000   0.559   0.369   0.190   0.000   0.000  751.48  636.50  326.64  309.87    0.00    0.00   0.074   0.063   0.023   0.010   0.005   0.007   0.004   0.002   0.001   0.001   0.037
 2019 346   179  22.10  31.10  15.80 -99.000   5.125   4.267   0.834 -99.000 -99.000 -99.000   0.548   0.365   0.182   0.000   0.000  756.61  637.05  327.00  310.05    0.00    0.00   0.067   0.063   0.023   0.010   0.005   0.007   0.004   0.002   0.001   0.001   0.037
 2019 347   180  22.50  31.40  15.10 -99.000   5.208   4.328   0.856 -99.000 -99.000 -99.000   0.538   0.363   0.175   0.000   0.000  761.81  637.59  327.36  310.22    0.00    0.00   0.061   0.062   0.023   0.009   0.005   0.007   0.004   0.002   0.001   0.001   0.036
 2019 348   181  19.70  31.20  15.20 -99.000   4.554   3.777   0.755 -99.000 -99.000 -99.000   0.531   0.361   0.169   0.000   0.001  766.37  638.12  327.72  310.39    0.00    0.00   0.056   0.062   0.023   0.009   0.005   0.007   0.004   0.002   0.001   0.001   0.036
 2019 349   182  20.80  31.10  15.70 -99.000   4.821   3.992   0.806 -99.000 -99.000 -99.000   0.524   0.360   0.163   0.000   0.001  771.19  638.65  328.08  310.56    0.00    0.00   0.051   0.061   0.022   0.009   0.005   0.007   0.004   0.002   0.001   0.001   0.036
 2019 350   183  21.90  32.00  15.30 -99.000   5.112   4.224   0.864 -99.000 -99.000 -99.000   0.520   0.361   0.158   0.000   0.001  776.30  639.17  328.45  310.71    0.00    0.01   0.046   0.061   0.022   0.009   0.005   0.007   0.004   0.002   0.001   0.001   0.036
 2019 351   184  21.90  32.00  16.70 -99.000   5.165   4.259   0.883 -99.000 -99.000 -99.000   0.517   0.363   0.153   0.000   0.001  781.46  639.68  328.81  310.87    0.00    0.01   0.042   0.060   0.022   0.009   0.005   0.007   0.004   0.002   0.001   0.001   0.036
 2019 352   185  20.40  33.00  17.30 -99.000   4.885   4.017   0.847 -99.000 -99.000 -99.000   0.483   0.333   0.149   0.000   0.001  786.35  640.16  329.14  311.02    0.00    0.01   0.038   0.059   0.022   0.009   0.005   0.007   0.004   0.002   0.001   0.001   0.033
 2019 353   186  21.50  32.30  17.80 -99.000   5.129   4.203   0.904 -99.000 -99.000 -99.000   0.484   0.339   0.145   0.000   0.001  791.48  640.65  329.48  311.16    0.00    0.01   0.035   0.059   0.022   0.009   0.005   0.007   0.004   0.002   0.001   0.001   0.034
 2019 354   187  22.00  32.00  15.40 -99.000   5.142   4.197   0.921 -99.000 -99.000 -99.000   0.480   0.338   0.141   0.000   0.001  796.62  641.13  329.82  311.30    0.00    0.01   0.032   0.059   0.022   0.009   0.005   0.007   0.004   0.002   0.001   0.001   0.034
 2019 355   188  22.10  31.40  14.40 -99.000   5.093   4.145   0.924 -99.000 -99.000 -99.000   0.477   0.339   0.138   0.000   0.001  801.71  641.61  330.16  311.44    0.00    0.01   0.029   0.058   0.022   0.009   0.005   0.007   0.004   0.002   0.001   0.001   0.034
 2019 356   189  22.70  32.30  14.40 -99.000   5.285   4.290   0.970 -99.000 -99.000 -99.000   0.476   0.341   0.134   0.000   0.001  807.00  642.08  330.50  311.57    0.00    0.01   0.026   0.058   0.021   0.009   0.005   0.007   0.004   0.002   0.001   0.001   0.034
 2019 357   190  23.00  31.90  13.80 -99.000   5.308   4.296   0.987 -99.000 -99.000 -99.000   0.476   0.344   0.132   0.000   0.001  812.31  642.56  330.84  311.71    0.00    0.01   0.024   0.058   0.021   0.009   0.005   0.007   0.004   0.002   0.001   0.001   0.034
 2019 358   191  23.00  32.50  14.30 -99.000   5.364   4.330   1.009 -99.000 -99.000 -99.000   0.478   0.349   0.129   0.000   0.001  817.67  643.04  331.19  311.83    0.00    0.01   0.022   0.057   0.021   0.009   0.005   0.007   0.004   0.002   0.001   0.001   0.035
 2019 359   192  22.80  32.30  14.90 -99.000   5.330   4.289   1.017 -99.000 -99.000 -99.000   0.483   0.356   0.126   0.000   0.001  823.00  643.52  331.55  311.96    0.00    0.01   0.020   0.057   0.021   0.009   0.005   0.007   0.004   0.002   0.001   0.001   0.036
 2019 360   193  21.90  32.50  14.60 -99.000   5.120   4.105   0.992 -99.000 -99.000 -99.000   0.491   0.366   0.124   0.000   0.001  828.12  644.01  331.91  312.08    0.00    0.01   0.018   0.057   0.021   0.009   0.005   0.007   0.004   0.002   0.001   0.001   0.037
 2019 361   194  20.60  31.90  14.90 -99.000   4.796   3.828   0.946 -99.000 -99.000 -99.000   0.503   0.380   0.122   0.000   0.001  832.92  644.51  332.29  312.21    0.00    0.01   0.017   0.056   0.021   0.009   0.004   0.007   0.004   0.002   0.001   0.001   0.038
 2019 362   195  22.10  32.30  13.90 -99.000   5.131   4.078   1.030 -99.000 -99.000 -99.000   0.519   0.399   0.120   0.000   0.001  838.05  645.03  332.69  312.33    0.00    0.01   0.015   0.056   0.021   0.009   0.004   0.007   0.004   0.002   0.001   0.001   0.040
 2019 363   196  22.60  31.40  13.90 -99.000   5.195   4.110   1.061 -99.000 -99.000 -99.000   0.544   0.425   0.118   0.000   0.001  843.24  645.58  333.12  312.44    0.00    0.02   0.014   0.056   0.020   0.009   0.004   0.007   0.004   0.002   0.001   0.001   0.043
 2019 364   197  22.80  30.90  13.80 -99.000   5.209   4.103   1.082 -99.000 -99.000 -99.000   0.580   0.463   0.116   0.000   0.001  848.45  646.16  333.58  312.56    0.00    0.02   0.012   0.056   0.020   0.009   0.004   0.007   0.004   0.002   0.001   0.001   0.046
 2019 365   198  23.00  31.90  14.00 -99.000   5.323   4.175   1.124 -99.000 -99.000 -99.000   0.484   0.369   0.114   0.000   0.001  853.77  646.64  333.95  312.67    0.00    0.02   0.011   0.055   0.020   0.008   0.004   0.007   0.004   0.002   0.001   0.001   0.037
 2020 001   199  21.90  31.30  14.30 -99.000   5.046   3.941   1.082 -99.000 -99.000 -99.000   0.556   0.442   0.113   0.000   0.001  858.82  647.20  334.39  312.79    0.00    0.02   0.010   0.055   0.020   0.008   0.004   0.007   0.004   0.002   0.001   0.001   0.044
 2020 002   200  20.70  29.60  12.80 -99.000   4.626   3.595   1.010 -99.000 -99.000 -99.000   0.617   0.505   0.111   0.000   0.001  863.45  647.81  334.90  312.90    0.00    0.02   0.009   0.055   0.020   0.008   0.004   0.007   0.004   0.002   0.001   0.001   0.050
 2020 003   201  21.30  30.80  12.60 -99.000   4.820   3.729   1.068 -99.000 -99.000 -99.000   0.734   0.623   0.110   0.000   0.001  868.27  648.55  335.52  313.01    0.00    0.02   0.009   0.054   0.020   0.008   0.004   0.007   0.004   0.002   0.001   0.001   0.062
 2020 004   202  19.40  31.00  13.70 -99.000   4.438   3.418   1.000 -99.000 -99.000 -99.000   0.167   0.057   0.109   0.000   0.001  872.70  648.72  335.58  313.12    0.00    0.02   0.008   0.054   0.020   0.008   0.004   0.007   0.004   0.002   0.001   0.001   0.006
 2020 005   203  17.80  30.90  15.80 -99.000   4.133   3.166   0.949 -99.000 -99.000 -99.000   0.109   0.000   0.108   0.000   0.001  876.84  648.82  335.58  313.22    0.00    0.02   0.007   0.054   0.020   0.008   0.004   0.007   0.004   0.002   0.001   0.001   0.000
 2020 006   204  17.80  32.30  18.10 -99.000   4.269   3.248   1.004 -99.000 -99.000 -99.000   0.108   0.000   0.107   0.000   0.001  881.11  648.93  335.58  313.33    0.00    0.02   0.006   0.053   0.020   0.008   0.004   0.007   0.004   0.002   0.001   0.001   0.000
 2020 007   205  18.00  32.10  17.60 -99.000   4.294   3.241   1.035 -99.000 -99.000 -99.000   0.107   0.000   0.106   0.000   0.001  885.40  649.04  335.58  313.44    0.00    0.03   0.006   0.053   0.020   0.008   0.004   0.007   0.004   0.002   0.001   0.001   0.000
 2020 008   206  20.70  33.40  16.90 -99.000   4.984   3.732   1.232 -99.000 -99.000 -99.000   0.106   0.000   0.105   0.000   0.001  890.38  649.15  335.58  313.54    0.00    0.03   0.005   0.053   0.020   0.008   0.004   0.007   0.004   0.002   0.001   0.001   0.000
 2020 009   207  21.90  33.90  16.50 -99.000   5.288   3.924   1.343 -99.000 -99.000 -99.000   0.106   0.000   0.104   0.000   0.001  895.67  649.25  335.58  313.65    0.00    0.03   0.005   0.052   0.020   0.008   0.004   0.007   0.004   0.002   0.001   0.001   0.000
 2020 010   208  20.00  33.60  17.20 -99.000   4.840   3.556   1.265 -99.000 -99.000 -99.000   0.105   0.000   0.103   0.000   0.001  900.51  649.36  335.58  313.75    0.00    0.03   0.004   0.052   0.020   0.008   0.004   0.007   0.004   0.002   0.001   0.001   0.000
 2020 011   209  20.40  31.60  18.50 -99.000   4.879   3.546   1.314 -99.000 -99.000 -99.000   0.104   0.000   0.103   0.000   0.002  905.39  649.46  335.58  313.85    0.00    0.03   0.004   0.052   0.020   0.008   0.004   0.007   0.004   0.002   0.001   0.001   0.000
 2020 012   210  18.00  32.60  17.40 -99.000   4.319   3.104   1.199 -99.000 -99.000 -99.000   0.104   0.000   0.102   0.000   0.002  909.71  649.56  335.58  313.95    0.00    0.03   0.004   0.052   0.020   0.008   0.004   0.007   0.004   0.002   0.001   0.001   0.000
 2020 013   211  22.10  33.60  18.80 -99.000   5.417   3.844   1.552 -99.000 -99.000 -99.000   0.103   0.000   0.101   0.000   0.002  915.13  649.67  335.58  314.06    0.00    0.04   0.003   0.051   0.020   0.008   0.004   0.007   0.004   0.002   0.001   0.001   0.000
 2020 014   212  21.90  34.20  17.90 -99.000   5.370   3.758   1.593 -99.000 -99.000 -99.000   0.102   0.000   0.101   0.000   0.002  920.50  649.77  335.58  314.16    0.00    0.04   0.003   0.051   0.020   0.008   0.004   0.007   0.004   0.002   0.001   0.001   0.000
 2020 015   213  22.10  34.70  18.00 -99.000   5.455   3.761   1.675 -99.000 -99.000 -99.000   0.102   0.000   0.100   0.000   0.002  925.95  649.87  335.58  314.26    0.00    0.04   0.003   0.051   0.020   0.008   0.004   0.007   0.004   0.002   0.001   0.001   0.000
 2020 016   214  21.60  33.80  15.30 -99.000   5.184   3.511   1.653 -99.000 -99.000 -99.000   0.102   0.000   0.100   0.000   0.002  931.14  649.97  335.58  314.36    0.00    0.04   0.003   0.050   0.020   0.008   0.004   0.007   0.004   0.002   0.001   0.001   0.000
 2020 017   215  21.80  33.80  15.30 -99.000   5.234   3.490   1.725 -99.000 -99.000 -99.000   0.101   0.000   0.099   0.000   0.002  936.37  650.07  335.58  314.46    0.00    0.04   0.002   0.050   0.020   0.008   0.004   0.007   0.004   0.002   0.001   0.001   0.000
 2020 018   216  20.20  32.10  15.90 -99.000   4.785   3.136   1.631 -99.000 -99.000 -99.000   0.101   0.000   0.098   0.000   0.002  941.15  650.17  335.58  314.55    0.00    0.05   0.002   0.050   0.020   0.008   0.004   0.007   0.004   0.002   0.001   0.001   0.000
 2020 019   217  18.80  32.70  16.10 -99.000   4.492   2.885   1.592 -99.000 -99.000 -99.000   0.100   0.000   0.098   0.000   0.002  945.65  650.27  335.58  314.65    0.00    0.05   0.002   0.050   0.020   0.008   0.004   0.007   0.004   0.002   0.001   0.001   0.000
 2020 020   218  18.20  33.60  16.80 -99.000   4.416   2.781   1.620 -99.000 -99.000 -99.000   0.100   0.000   0.098   0.000   0.002  950.06  650.37  335.58  314.75    0.00    0.05   0.002   0.049   0.020   0.008   0.004   0.007   0.004   0.002   0.001   0.001   0.000
 2020 021   219  20.70  33.70  17.50 -99.000   5.057   3.116   1.924 -99.000 -99.000 -99.000   0.099   0.000   0.097   0.000   0.002  955.12  650.47  335.58  314.85    0.00    0.05   0.002   0.049   0.020   0.008   0.004   0.007   0.004   0.002   0.001   0.001   0.000
 2020 022   220  22.70  35.10  18.30 -99.000   5.690   3.428   2.244 -99.000 -99.000 -99.000   0.099   0.000   0.097   0.000   0.002  960.81  650.57  335.58  314.94    0.00    0.05   0.001   0.049   0.020   0.008   0.004   0.007   0.004   0.002   0.001   0.001   0.000
 2020 023   221  20.30  34.90  15.80 -99.000   4.969   2.924   2.029 -99.000 -99.000 -99.000   0.099   0.000   0.096   0.000   0.002  965.78  650.67  335.58  315.04    0.00    0.06   0.001   0.048   0.020   0.008   0.004   0.007   0.004   0.002   0.001   0.001   0.000
 2020 024   222  24.70  32.90  14.60 -99.000   5.870   3.370   2.481 -99.000 -99.000 -99.000   0.098   0.000   0.096   0.000   0.003  971.65  650.77  335.58  315.13    0.00    0.06   0.001   0.048   0.019   0.008   0.004   0.007   0.004   0.002   0.001   0.001   0.000
 2020 025   223  23.60  32.90  13.50 -99.000   5.566   3.128   2.420 -99.000 -99.000 -99.000   0.098   0.000   0.095   0.000   0.003  977.21  650.87  335.58  315.23    0.00    0.06   0.001   0.048   0.019   0.008   0.004   0.007   0.004   0.002   0.001   0.001   0.000
 2020 026   224  23.10  33.90  13.30 -99.000   5.503   3.029   2.457 -99.000 -99.000 -99.000   0.097   0.000   0.095   0.000   0.003  982.72  650.97  335.58  315.32    0.00    0.06   0.001   0.048   0.019   0.008   0.004   0.007   0.004   0.002   0.001   0.001   0.000
 2020 027   225  22.50  33.70  14.40 -99.000   5.395   2.901   2.478 -99.000 -99.000 -99.000   0.097   0.000   0.095   0.000   0.002  988.11  651.06  335.58  315.42    0.00    0.07   0.001   0.047   0.019   0.008   0.004   0.007   0.004   0.002   0.001   0.001   0.000
 2020 028   226  21.90  34.00  14.90 -99.000   5.290   2.785   2.490 -99.000 -99.000 -99.000   0.097   0.000   0.094   0.000   0.002  993.40  651.16  335.58  315.51    0.00    0.07   0.001   0.047   0.019   0.008   0.004   0.007   0.004   0.002   0.001   0.001   0.000
 2020 029   227  18.50  35.30  15.30 -99.000   4.609   2.370   2.227 -99.000 -99.000 -99.000   0.096   0.000   0.094   0.000   0.002  998.01  651.26  335.58  315.61    0.00    0.07   0.001   0.047   0.019   0.008   0.004   0.007   0.004   0.002   0.001   0.001   0.000
 2020 030   228  23.00  35.20  15.40 -99.000   5.707   2.852   2.840 -99.000 -99.000 -99.000   0.096   0.000   0.093   0.000   0.002   1004.    651.    336.    316.      0.      0.   0.001   0.046   0.019   0.008   0.004   0.007   0.004   0.002   0.001   0.001   0.000
 2020 031   229  22.80  34.90  15.40 -99.000   5.592   2.719   2.858 -99.000 -99.000 -99.000   0.095   0.000   0.093   0.000   0.002   1009.    651.    336.    316.      0.      0.   0.001   0.046   0.019   0.008   0.004   0.007   0.004   0.002   0.001   0.001   0.000
 2020 032   230  22.90  34.60  15.50 -99.000   5.604   2.663   2.928 -99.000 -99.000 -99.000   0.095   0.000   0.093   0.000   0.002   1015.    652.    336.    316.      0.      0.   0.001   0.046   0.019   0.008   0.004   0.007   0.004   0.002   0.001   0.001   0.000
 2020 033   231  22.10  34.30  16.90 -99.000   5.449   2.519   2.916 -99.000 -99.000 -99.000   0.095   0.000   0.092   0.000   0.002   1020.    652.    336.    316.      0.      0.   0.001   0.046   0.019   0.008   0.004   0.007   0.004   0.002   0.001   0.001   0.000
 2020 034   232  21.50  34.10  16.10 -99.000   5.262   2.369   2.881 -99.000 -99.000 -99.000   0.094   0.000   0.092   0.000   0.002   1026.    652.    336.    316.      0.      0.   0.000   0.045   0.019   0.008   0.004   0.007   0.004   0.002   0.001   0.001   0.000
 2020 035   233  21.40  32.60  16.50 -99.000   5.171   2.262   2.897 -99.000 -99.000 -99.000   0.094   0.000   0.092   0.000   0.002   1031.    652.    336.    316.      0.      0.   0.000   0.045   0.019   0.008   0.004   0.007   0.004   0.002   0.001   0.001   0.000
 2020 036   234  22.10  33.60  16.40 -99.000   5.397   2.291   3.094 -99.000 -99.000 -99.000   0.093   0.000   0.091   0.000   0.002   1036.    652.    336.    316.      0.      0.   0.000   0.045   0.019   0.008   0.004   0.007   0.004   0.002   0.001   0.001   0.000
 2020 037   235  21.30  34.00  16.40 -99.000   5.227   2.154   3.061 -99.000 -99.000 -99.000   0.093   0.000   0.091   0.000   0.002   1041.    652.    336.    316.      0.      0.   0.000   0.045   0.019   0.008   0.004   0.007   0.004   0.002   0.001   0.001   0.000
 2020 038   236  23.10  35.70  17.60 -99.000   6.009   2.397   3.600 -99.000 -99.000 -99.000   0.093   0.000   0.091   0.000   0.002   1047.    652.    336.    316.      0.      0.   0.000   0.044   0.019   0.008   0.004   0.007   0.004   0.002   0.001   0.001   0.000
 2020 039   237  22.90  37.10  18.50 -99.000   6.460   2.493   3.955 -99.000 -99.000 -99.000   0.092   0.000   0.090   0.000   0.002   1054.    652.    336.    317.      0.      0.   0.000   0.044   0.019   0.008   0.004   0.007   0.004   0.002   0.001   0.001   0.000
 2020 040   238  22.30  36.00  18.00 -99.000   5.919   2.193   3.715 -99.000 -99.000 -99.000   0.092   0.000   0.090   0.000   0.002   1060.    652.    336.    317.      0.      0.   0.000   0.044   0.019   0.008   0.004   0.007   0.004   0.002   0.001   0.001   0.000
 2020 041   239  18.40  35.80  18.90 -99.000   4.864   1.738   3.118 -99.000 -99.000 -99.000   0.092   0.000   0.090   0.000   0.002   1065.    652.    336.    317.      0.      0.   0.000   0.044   0.019   0.008   0.004   0.007   0.004   0.002   0.001   0.001   0.000
 2020 042   240  20.10  36.30  18.50 -99.000   5.445   1.879   3.557 -99.000 -99.000 -99.000   0.091   0.000   0.090   0.000   0.002   1070.    652.    336.    317.      0.      0.   0.000   0.043   0.019   0.008   0.004   0.007   0.004   0.002   0.001   0.001   0.000
 2020 043   241  18.70  34.20  17.80 -99.000   4.659   1.540   3.112 -99.000 -99.000 -99.000   0.091   0.000   0.089   0.000   0.002   1075.    653.    336.    317.      0.      0.   0.000   0.043   0.019   0.008   0.004   0.007   0.004   0.002   0.001   0.001   0.000
 2020 044   242  19.90  35.00  17.80 -99.000   5.001   1.602   3.391 -99.000 -99.000 -99.000   0.091   0.000   0.089   0.000   0.002   1080.    653.    336.    317.      0.      0.   0.000   0.043   0.019   0.008   0.004   0.007   0.004   0.002   0.001   0.001   0.000
 2020 045   243  20.10  35.90  17.40 -99.000   5.296   1.627   3.661 -99.000 -99.000 -99.000   0.090   0.000   0.089   0.000   0.002   1085.    653.    336.    317.      0.      0.   0.000   0.043   0.019   0.008   0.004   0.007   0.004   0.002   0.001   0.001   0.000
 2020 046   244  23.80  36.60  17.50 -99.000   6.517   1.926   4.581 -99.000 -99.000 -99.000   0.090   0.000   0.088   0.000   0.001   1092.    653.    336.    317.      0.      0.   0.000   0.042   0.019   0.008   0.004   0.007   0.004   0.002   0.001   0.001   0.000
 2020 047   245  23.50  37.20  17.40 -99.000   6.638   1.879   4.749 -99.000 -99.000 -99.000   0.090   0.000   0.088   0.000   0.001   1098.    653.    336.    317.      0.      0.   0.000   0.042   0.019   0.008   0.004   0.007   0.004   0.002   0.001   0.001   0.000
 2020 048   246  22.80  36.80  18.70 -99.000   6.366   1.730   4.628 -99.000 -99.000 -99.000   0.089   0.000   0.088   0.000   0.001   1105.    653.    336.    317.      0.      0.   0.000   0.042   0.019   0.008   0.004   0.007   0.004   0.002   0.001   0.001   0.000
 2020 049   247  20.40  35.10  19.30 -99.000   5.221   1.358   3.857 -99.000 -99.000 -99.000   0.089   0.000   0.088   0.000   0.001   1110.    653.    336.    317.      0.      0.   0.000   0.042   0.019   0.008   0.004   0.007   0.004   0.002   0.001   0.001   0.000
 2020 050   248  19.20  33.50  19.70 -99.000   4.826   1.199   3.621 -99.000 -99.000 -99.000   0.089   0.000   0.087   0.000   0.001   1115.    653.    336.    318.      0.      0.   0.000   0.041   0.019   0.008   0.004   0.007   0.004   0.002   0.001   0.001   0.000
 2020 051   249  21.80  37.10  19.40 -99.000   6.219   1.475   4.737 -99.000 -99.000 -99.000   0.088   0.000   0.087   0.000   0.001   1121.    653.    336.    318.      0.      0.   0.000   0.041   0.019   0.008   0.004   0.007   0.004   0.002   0.001   0.001   0.000
 2020 052   250  20.40  38.50  20.40 -99.000   6.290   1.408   4.876 -99.000 -99.000 -99.000   0.088   0.000   0.087   0.000   0.001   1127.    653.    336.    318.      0.      0.   0.000   0.041   0.019   0.008   0.004   0.007   0.004   0.002   0.001   0.001   0.000
 2020 053   251  22.50  39.00  20.40 -99.000   7.112   1.503   5.602 -99.000 -99.000 -99.000   0.088   0.000   0.086   0.000   0.001   1134.    653.    336.    318.      0.      0.   0.000   0.041   0.019   0.008   0.004   0.007   0.004   0.002   0.001   0.001   0.000
 2020 054   252  23.40  38.80  20.40 -99.000   7.327   1.460   5.861 -99.000 -99.000 -99.000   0.087   0.000   0.086   0.000   0.001   1142.    654.    336.    318.      0.      0.   0.000   0.041   0.019   0.008   0.004   0.007   0.004   0.002   0.001   0.001   0.000
 2020 055   253  24.30  37.90  20.10 -99.000   7.266   1.356   5.905 -99.000 -99.000 -99.000   0.087   0.000   0.086   0.000   0.001   1149.    654.    336.    318.      0.      0.   0.000   0.040   0.019   0.008   0.004   0.007   0.004   0.002   0.001   0.001   0.000
 2020 056   254  20.30  36.20  19.20 -99.000   5.527   0.965   4.558 -99.000 -99.000 -99.000   0.087   0.000   0.086   0.000   0.001   1154.    654.    336.    318.      0.      0.   0.000   0.040   0.019   0.008   0.004   0.007   0.004   0.002   0.001   0.001   0.000
 2020 057   255  18.50  34.70  19.20 -99.000   4.704   0.765   3.935 -99.000 -99.000 -99.000   0.087   0.000   0.085   0.000   0.001   1159.    654.    336.    318.      0.      0.   0.000   0.040   0.019   0.008   0.004   0.007   0.004   0.002   0.001   0.001   0.000
 2020 058   256  16.70  36.30  21.30 -99.000   4.639   0.709   3.927 -99.000 -99.000 -99.000   0.086   0.000   0.085   0.000   0.001   1164.    654.    336.    318.      0.      0.   0.000   0.040   0.019   0.008   0.004   0.007   0.004   0.002   0.001   0.001   0.000
 2020 059   257  15.90  35.10  22.50 -99.000   4.174   0.595   3.576 -99.000 -99.000 -99.000   0.086   0.000   0.085   0.000   0.001   1168.    654.    336.    318.      0.      0.   0.000   0.039   0.019   0.008   0.004   0.007   0.004   0.002   0.001   0.001   0.000
 2020 060   258  18.90  37.90  22.30 -99.000   5.743   0.760   4.980 -99.000 -99.000 -99.000   0.086   0.000   0.085   0.000   0.001   1174.    654.    336.    318.      0.      0.   0.000   0.039   0.019   0.008   0.004   0.007   0.004   0.002   0.001   0.001   0.000
 2020 061   259  20.50  36.10  23.30 -99.000   5.716   0.698   5.015 -99.000 -99.000 -99.000   0.085   0.000   0.084   0.000   0.001   1179.    654.    336.    318.      0.      0.   0.000   0.039   0.019   0.008   0.004   0.007   0.004   0.002   0.001   0.001   0.000
 2020 062   260  16.00  34.90  23.00 -99.000   4.190   0.471   3.717 -99.000 -99.000 -99.000   0.085   0.000   0.084   0.000   0.001   1184.    654.    336.    319.      0.      0.   0.000   0.039   0.019   0.008   0.004   0.007   0.004   0.002   0.001   0.001   0.000
 2020 063   261  16.30  35.30  23.80 -99.000   4.369   0.452   3.914 -99.000 -99.000 -99.000   0.088   0.000   0.087   0.000   0.001   1188.    654.    336.    319.      0.      0.   0.003   0.039   0.019   0.008   0.004   0.007   0.004   0.002   0.001   0.001   0.000
 2020 064   262  22.30  36.40  24.10 -99.000   6.356   0.613   5.740 -99.000 -99.000 -99.000   0.100   0.000   0.093   0.000   0.007   1194.    654.    336.    319.      0.      0.   0.010   0.038   0.019   0.008   0.004   0.007   0.004   0.002   0.001   0.001   0.000
 2020 065   263  22.80  37.40  23.10 -99.000   6.801   0.609   6.189 -99.000 -99.000 -99.000   0.106   0.000   0.095   0.000   0.011   1201.    655.    336.    319.      0.      0.   0.012   0.038   0.019   0.008   0.004   0.007   0.004   0.002   0.001   0.001   0.000
 2020 066   264  22.20  33.40  24.40 -99.000   5.786   0.487   5.297 -99.000 -99.000 -99.000   0.103   0.000   0.094   0.000   0.009   1207.    655.    336.    319.      0.      0.   0.011   0.038   0.019   0.008   0.004   0.007   0.004   0.002   0.001   0.001   0.000
 2020 067   265  20.70  38.50  22.80 -99.000   6.511   0.511   5.998 -99.000 -99.000 -99.000   0.100   0.000   0.093   0.000   0.007   1213.    655.    336.    319.      0.      0.   0.010   0.038   0.019   0.008   0.004   0.007   0.004   0.002   0.001   0.001   0.000
 2020 068   266  22.20  37.40  22.90 -99.000   6.615   0.472   6.141 -99.000 -99.000 -99.000   0.097   0.000   0.092   0.000   0.005   1220.    655.    336.    319.      0.      0.   0.009   0.037   0.019   0.008   0.004   0.007   0.004   0.002   0.001   0.001   0.000
 2020 069   267  21.90  38.60  24.90 -99.000   7.020   0.445   6.573 -99.000 -99.000 -99.000   0.095   0.000   0.091   0.000   0.004   1227.    655.    336.    319.      0.      0.   0.008   0.037   0.018   0.008   0.004   0.007   0.004   0.002   0.001   0.001   0.000
 2020 070   268  22.40  35.40  24.30 -99.000   6.065   0.335   5.729 -99.000 -99.000 -99.000   0.097   0.000   0.093   0.000   0.003   1233.    655.    336.    319.      0.      0.   0.011   0.037   0.018   0.008   0.004   0.007   0.004   0.002   0.001   0.001   0.000
 2020 071   269  20.00  35.80  23.50 -99.000   5.506   0.267   5.238 -99.000 -99.000 -99.000   0.107   0.000   0.098   0.000   0.009   1239.    655.    336.    319.      0.      0.   0.016   0.037   0.018   0.008   0.004   0.007   0.004   0.002   0.001   0.001   0.000
 2020 072   270  19.40  36.20  23.70 -99.000   5.465   0.238   5.227 -99.000 -99.000 -99.000   0.116   0.000   0.103   0.000   0.013   1244.    655.    336.    319.      0.      0.   0.022   0.037   0.018   0.008   0.004   0.007   0.004   0.002   0.001   0.001   0.000
 2020 073   271  17.60  35.10  22.10 -99.000   4.622   0.180   4.441 -99.000 -99.000 -99.000   0.121   0.000   0.104   0.000   0.016   1249.    655.    336.    320.      0.      0.   0.023   0.036   0.018   0.008   0.004   0.007   0.004   0.002   0.001   0.001   0.000
 2020 074   272  19.60  36.60  20.30 -99.000   5.513   0.197   5.316 -99.000 -99.000 -99.000   0.115   0.000   0.102   0.000   0.013   1254.    655.    336.    320.      0.      0.   0.021   0.036   0.018   0.008   0.004   0.007   0.004   0.002   0.001   0.001   0.000
 2020 075   273  22.90  37.50  19.40 -99.000   6.708   0.222   6.485 -99.000 -99.000 -99.000   0.110   0.000   0.100   0.000   0.010   1261.    656.    336.    320.      0.      0.   0.019   0.036   0.018   0.008   0.004   0.007   0.004   0.002   0.001   0.001   0.000
 2020 076   274  25.20  37.00  20.10 -99.000   7.229   0.209   7.018 -99.000 -99.000 -99.000   0.106   0.000   0.098   0.000   0.008   1268.    656.    336.    320.      0.      0.   0.017   0.036   0.018   0.008   0.004   0.007   0.003   0.002   0.001   0.001   0.000
 2020 077   275  24.00  37.60  22.40 -99.000   7.209   0.189   7.018 -99.000 -99.000 -99.000   0.102   0.000   0.096   0.000   0.006   1275.    656.    336.    320.      0.      0.   0.016   0.036   0.018   0.008   0.004   0.007   0.003   0.002   0.001   0.001   0.000
 2020 078   276  21.60  36.50  24.50 -99.000   6.216   0.145   6.070 -99.000 -99.000 -99.000   0.099   0.000   0.095   0.000   0.005   1282.    656.    336.    320.      0.      0.   0.014   0.035   0.018   0.008   0.004   0.007   0.003   0.002   0.001   0.001   0.000
 2020 079   277  19.50  38.30  23.40 -99.000   6.105   0.127   5.978 -99.000 -99.000 -99.000   0.100   0.000   0.096   0.000   0.004   1288.    656.    336.    320.      0.      0.   0.016   0.035   0.018   0.008   0.004   0.007   0.003   0.002   0.001   0.001   0.000
 2020 080   278  19.10  35.30  24.10 -99.000   5.142   0.092   5.049 -99.000 -99.000 -99.000   0.110   0.000   0.101   0.000   0.009   1293.    656.    336.    320.      0.      0.   0.021   0.035   0.018   0.008   0.004   0.007   0.003   0.002   0.001   0.001   0.000
 2020 081   279  19.30  34.90  24.10 -99.000   5.106   0.078   5.029 -99.000 -99.000 -99.000   0.122   0.000   0.109   0.000   0.013   1298.    656.    336.    320.      0.      0.   0.029   0.035   0.018   0.008   0.004   0.007   0.003   0.002   0.001   0.001   0.000
 2020 082   280  19.50  33.40  24.40 -99.000   5.094   0.074   5.019 -99.000 -99.000 -99.000   0.167   0.000   0.145   0.000   0.023   1303.    656.    336.    321.      0.      0.   0.065   0.035   0.018   0.008   0.004   0.007   0.003   0.002   0.001   0.001   0.000
 2020 083   281  20.10  32.20  24.60 -99.000   5.205   0.068   5.137 -99.000 -99.000 -99.000   0.393   0.000   0.335   0.000   0.059   1308.    657.    336.    321.      0.      0.   0.255   0.034   0.018   0.008   0.004   0.007   0.003   0.002   0.001   0.001   0.000
 2020 084   282  21.40  30.00  23.60 -99.000   5.443   0.058   5.384 -99.000 -99.000 -99.000   0.907   0.000   0.854   0.000   0.053   1314.    658.    336.    322.      0.      0.   0.767   0.042   0.018   0.008   0.004   0.007   0.003   0.002   0.001   0.001   0.000
 2020 085   283  22.10  31.00  22.50 -99.000   5.784   0.050   5.733 -99.000 -99.000 -99.000   4.844   0.050   4.731   0.000   0.062   1319.    663.    336.    326.      0.      0.   1.341   0.434   0.351   0.284   0.228   0.633   0.487   0.407   0.353   0.214   0.005
 2020 086   284  19.80  32.80  22.80 -99.000   5.301   0.038   5.262 -99.000 -99.000 -99.000   4.437   0.038   4.340   0.000   0.059   1325.    667.    336.    331.      0.      1.   1.108   0.505   0.320   0.260   0.210   0.584   0.451   0.377   0.328   0.198   0.004
 2020 087   285  24.40  36.20  22.90 -99.000   7.084   0.051   7.033 -99.000 -99.000 -99.000   5.929   0.051   5.816   0.000   0.062   1332.    673.    336.    337.      0.      1.   1.330   0.728   0.435   0.357   0.289   0.805   0.623   0.521   0.453   0.274   0.005
 2020 088   286  25.60  36.10  23.60 -99.000   7.382   0.053   7.329 -99.000 -99.000 -99.000   0.990   0.053   0.889   0.000   0.048   1339.    674.    336.    337.      0.      1.   0.768   0.078   0.017   0.007   0.004   0.007   0.003   0.002   0.001   0.001   0.005
 2020 089   287  23.00  33.50  23.80 -99.000   6.149   0.044   6.104 -99.000 -99.000 -99.000   1.001   0.044   0.902   0.000   0.056   1345.    675.    336.    338.      0.      1.   0.781   0.078   0.017   0.007   0.004   0.007   0.003   0.002   0.001   0.001   0.004
 2020 090   288  18.90  33.00  23.90 -99.000   5.046   0.029   5.017 -99.000 -99.000 -99.000   1.026   0.029   0.937   0.000   0.060   1350.    676.    336.    339.      0.      1.   0.817   0.078   0.017   0.007   0.004   0.007   0.003   0.002   0.001   0.001   0.003
 2020 091   289  18.00  30.90  24.00 -99.000   4.704   0.023   4.681 -99.000 -99.000 -99.000   3.934   0.023   3.851   0.000   0.060   1355.    680.    336.    343.      0.      1.   0.943   0.498   0.274   0.227   0.185   0.517   0.401   0.336   0.293   0.177   0.002
 2020 092   290  19.30  30.40  24.00 -99.000   5.072   0.020   5.052 -99.000 -99.000 -99.000   4.241   0.020   4.160   0.000   0.061   1360.    684.    336.    347.      0.      1.   1.018   0.585   0.288   0.240   0.195   0.549   0.426   0.358   0.312   0.189   0.002
 2020 093   291  20.40  33.50  24.00 -99.000   5.498   0.018   5.480 -99.000 -99.000 -99.000   4.596   0.018   4.518   0.000   0.060   1366.    689.    336.    352.      0.      1.   1.022   0.660   0.316   0.265   0.216   0.609   0.474   0.398   0.347   0.211   0.002
 2020 094   292  23.70  31.00  24.40 -99.000   6.217   0.028   6.189 -99.000 -99.000 -99.000   1.046   0.028   0.960   0.000   0.059   1372.    690.    336.    353.      0.      1.   0.827   0.092   0.016   0.007   0.004   0.007   0.003   0.002   0.001   0.001   0.003
 2020 095   293  22.30  32.80  23.80 -99.000   5.940   0.035   5.905 -99.000 -99.000 -99.000   1.056   0.035   0.959   0.000   0.062   1378.    691.    336.    354.      0.      1.   0.826   0.092   0.016   0.007   0.004   0.007   0.003   0.002   0.001   0.001   0.003
[...]
 2020 141   334  22.60  29.50  22.10 -99.000   5.628   1.285   4.343 -99.000 -99.000 -99.000   4.847   1.285   3.488   0.000   0.074   1665.   1097.    539.    553.      0.      4.   0.776   0.526   0.436   0.311   0.242   0.258   0.215   0.406   0.318   0.128
 2020 142   335  24.10  30.80  20.00 -99.000   5.991   1.375   4.615 -99.000 -99.000 -99.000   5.160   1.375   3.712   0.000   0.073   1671.   1102.    541.    557.      0.      4.   0.802   0.588   0.480   0.335   0.257   0.271   0.225   0.424   0.330   0.138
 2020 143   336  21.00  30.00  22.00 -99.000   5.249   1.212   4.036 -99.000 -99.000 -99.000   4.522   1.212   3.236   0.000   0.074   1677.   1106.    542.    560.      0.      4.   0.664   0.507   0.429   0.300   0.233   0.249   0.208   0.366   0.280   0.121
 2020 144   337  23.20  29.30  21.30 -99.000   5.727   1.332   4.395 -99.000 -99.000 -99.000   4.936   1.332   3.531   0.000   0.073   1682.   1111.    543.    564.      0.      4.   0.707   0.510   0.455   0.336   0.268   0.286   0.244   0.411   0.314   0.133
 2020 145   338  17.40  28.10  21.20 -99.000   4.229   0.993   3.236 -99.000 -99.000 -99.000   3.646   0.993   2.580   0.000   0.074   1687.   1115.    544.    566.      0.      4.   0.511   0.382   0.338   0.245   0.195   0.206   0.174   0.297   0.231   0.099
 2020 146   339  21.50  28.40  21.60 -99.000   5.266   1.248   4.019 -99.000 -99.000 -99.000   4.542   1.248   3.222   0.000   0.073   1692.   1119.    546.    570.      0.      4.   0.648   0.492   0.425   0.305   0.241   0.250   0.211   0.364   0.285   0.125
 2020 147   340  23.10  29.30  21.90 -99.000   5.723   1.368   4.355 -99.000 -99.000 -99.000   4.939   1.368   3.497   0.000   0.074   1698.   1124.    547.    573.      0.      4.   0.715   0.510   0.448   0.331   0.264   0.276   0.233   0.403   0.318   0.137
 2020 148   341  16.50  28.90  21.70 -99.000   4.062   0.979   3.083 -99.000 -99.000 -99.000   3.507   0.979   2.454   0.000   0.073   1702.   1128.    548.    576.      0.      4.   0.508   0.350   0.308   0.229   0.184   0.195   0.164   0.288   0.228   0.098
 2020 149   342  21.30  29.50  22.20 -99.000   5.298   1.288   4.009 -99.000 -99.000 -99.000   4.576   1.288   3.214   0.000   0.074   1707.   1132.    549.    579.      0.      4.   0.619   0.456   0.407   0.303   0.245   0.261   0.222   0.391   0.310   0.129
 2020 150   343  20.70  31.60  21.80 -99.000   5.228   1.281   3.947 -99.000 -99.000 -99.000   4.517   1.281   3.163   0.000   0.073   1712.   1137.    551.    582.      0.      4.   0.572   0.445   0.402   0.300   0.243   0.262   0.223   0.399   0.316   0.128
 2020 151   344  22.70  29.80  22.30 -99.000   5.630   1.388   4.241 -99.000 -99.000 -99.000   4.866   1.388   3.408   0.000   0.070   1718.   1142.    552.    585.      0.      4.   0.605   0.477   0.433   0.322   0.261   0.283   0.241   0.438   0.348   0.139
 2020 152   345  21.00  30.20  21.90 -99.000   5.211   1.290   3.921 -99.000 -99.000 -99.000   4.505   1.290   3.141   0.000   0.074   1723.   1146.    553.    589.      0.      4.   0.562   0.438   0.400   0.294   0.237   0.259   0.221   0.407   0.323   0.129
 2020 153   346  21.20  29.40  21.90 -99.000   5.217   1.297   3.919 -99.000 -99.000 -99.000   4.510   1.297   3.141   0.000   0.072   1728.   1151.    555.    592.      0.      5.   0.570   0.438   0.398   0.293   0.234   0.257   0.219   0.408   0.324   0.130
 2020 154   347  20.80  30.50  22.60 -99.000   5.203   1.298   3.905 -99.000 -99.000 -99.000   4.499   1.298   3.127   0.000   0.074   1733.   1155.    556.    595.      0.      5.   0.582   0.438   0.391   0.290   0.232   0.253   0.215   0.404   0.321   0.130
 2020 155   348  23.50  31.00  22.00 -99.000   5.891   1.477   4.414 -99.000 -99.000 -99.000   5.094   1.477   3.544   0.000   0.073   1739.   1160.    557.    598.      0.      5.   0.697   0.500   0.435   0.322   0.258   0.282   0.240   0.453   0.358   0.148
 2020 156   349  17.50  28.20  22.20 -99.000   4.268   1.075   3.193 -99.000 -99.000 -99.000   3.692   1.075   2.543   0.000   0.074   1744.   1164.    558.    601.      0.      5.   0.515   0.361   0.311   0.227   0.182   0.200   0.170   0.322   0.255   0.107
 2020 157   350  19.00  30.00  21.70 -99.000   4.710   1.193   3.516 -99.000 -99.000 -99.000   4.075   1.193   2.808   0.000   0.074   1748.   1168.    560.    604.      0.      5.   0.612   0.406   0.342   0.243   0.194   0.213   0.181   0.345   0.273   0.119
 2020 158   351  17.10  28.40  21.70 -99.000   4.182   1.069   3.113 -99.000 -99.000 -99.000   3.620   1.069   2.478   0.000   0.074   1753.   1172.    561.    606.      0.      5.   0.564   0.374   0.305   0.212   0.164   0.180   0.154   0.293   0.232   0.107
 2020 159   352  25.00  31.40  21.50 -99.000   6.305   1.632   4.673 -99.000 -99.000 -99.000   5.462   1.632   3.756   0.000   0.074   1759.   1177.    562.    610.      0.      5.   0.833   0.605   0.479   0.329   0.248   0.265   0.225   0.431   0.341   0.163
 2020 160   353  23.10  32.50  21.40 -99.000   5.885   1.540   4.345 -99.000 -99.000 -99.000   5.101   1.540   3.487   0.000   0.074   1765.   1182.    564.    613.      0.      5.   0.753   0.573   0.456   0.314   0.236   0.246   0.204   0.392   0.311   0.154
 2020 161   354  17.10  26.70  22.00 -99.000   4.108   1.090   3.018 -99.000 -99.000 -99.000   3.563   1.090   2.400   0.000   0.074   1769.   1186.    565.    616.      0.      5.   0.506   0.384   0.323   0.227   0.176   0.174   0.140   0.263   0.207   0.109
 2020 162   355  24.60  27.60  21.40 -99.000   5.944   1.598   4.347 -99.000 -99.000 -99.000   5.160   1.598   3.488   0.000   0.074   1775.   1191.    566.    619.      0.      5.   0.704   0.521   0.467   0.345   0.275   0.270   0.215   0.389   0.304   0.160
 2020 163   356  23.40  28.70  20.80 -99.000   5.681   1.550   4.132 -99.000 -99.000 -99.000   4.936   1.550   3.312   0.000   0.074   1780.   1196.    568.    623.      0.      5.   0.668   0.506   0.437   0.320   0.254   0.258   0.208   0.371   0.289   0.155
 2020 164   357  16.80  30.20  21.60 -99.000   4.178   1.159   3.019 -99.000 -99.000 -99.000   3.633   1.159   2.400   0.000   0.074   1785.   1200.    569.    625.      0.      5.   0.494   0.376   0.315   0.227   0.179   0.184   0.151   0.266   0.207   0.116
 2020 165   358  23.80  27.00  21.40 -99.000   5.706   1.609   4.097 -99.000 -99.000 -99.000   4.966   1.609   3.284   0.000   0.074   1790.   1205.    571.    628.      0.      5.   0.683   0.503   0.426   0.310   0.244   0.253   0.209   0.368   0.287   0.161
 2020 166   359  23.40  30.00  21.40 -99.000   5.793   1.659   4.134 -99.000 -99.000 -99.000   5.046   1.659   3.314   0.000   0.074   1796.   1210.    572.    632.      0.      5.   0.693   0.496   0.423   0.310   0.246   0.258   0.214   0.378   0.296   0.166
 2020 167   360  22.20  29.80  21.40 -99.000   5.482   1.588   3.894 -99.000 -99.000 -99.000   4.779   1.588   3.117   0.000   0.074   1802.   1214.    574.    635.      0.      6.   0.600   0.453   0.401   0.297   0.237   0.251   0.211   0.374   0.293   0.159
 2020 168   361  22.60  30.00  21.80 -99.000   5.586   1.640   3.946 -99.000 -99.000 -99.000   4.874   1.640   3.160   0.000   0.074   1807.   1219.    576.    638.      0.      6.   0.573   0.450   0.406   0.303   0.244   0.261   0.220   0.394   0.310   0.164
 2020 169   362  19.40  28.20  22.40 -99.000   4.712   1.395   3.317 -99.000 -99.000 -99.000   4.113   1.395   2.644   0.000   0.074   1812.   1223.    577.    641.      0.      6.   0.482   0.373   0.337   0.250   0.202   0.218   0.184   0.334   0.264   0.139
 2020 170   363  18.50  26.50  21.80 -99.000   4.393   1.311   3.082 -99.000 -99.000 -99.000   3.836   1.311   2.452   0.000   0.074   1816.   1227.    578.    643.      0.      6.   0.478   0.343   0.307   0.227   0.182   0.197   0.167   0.307   0.243   0.131
 2020 171   364  21.10  27.40  21.30 -99.000   5.051   1.519   3.532 -99.000 -99.000 -99.000   4.413   1.519   2.820   0.000   0.074   1821.   1232.    580.    646.      0.      6.   0.573   0.397   0.350   0.257   0.205   0.223   0.189   0.350   0.277   0.152
 2020 172   365  23.00  30.60  20.50 -99.000   5.666   1.717   3.948 -99.000 -99.000 -99.000   4.952   1.717   3.161   0.000   0.074   1827.   1237.    582.    649.      0.      6.   0.605   0.451   0.399   0.292   0.232   0.252   0.214   0.400   0.317   0.172
 2020 173   366  21.60  29.90  20.90 -99.000   5.282   1.617   3.665 -99.000 -99.000 -99.000   4.619   1.617   2.928   0.000   0.074   1832.   1241.    583.    652.      0.      6.   0.542   0.416   0.373   0.272   0.216   0.236   0.199   0.377   0.297   0.162
 2020 174   367  18.30  27.60  21.50 -99.000   4.379   1.352   3.027 -99.000 -99.000 -99.000   3.831   1.352   2.405   0.000   0.074   1837.   1245.    585.    654.      0.      6.   0.437   0.340   0.306   0.224   0.178   0.195   0.164   0.314   0.246   0.135
 2020 175   368  24.70  29.00  20.70 -99.000   5.964   1.860   4.104 -99.000 -99.000 -99.000   5.221   1.860   3.287   0.000   0.074   1843.   1250.    586.    658.      0.      6.   0.605   0.463   0.414   0.304   0.243   0.266   0.224   0.430   0.338   0.186
 2020 176   369  24.40  31.40  20.10 -99.000   6.020   1.895   4.125 -99.000 -99.000 -99.000   3.074   1.895   1.104   0.000   0.074   1849.   1253.    588.    659.      0.      6.   0.912   0.117   0.037   0.015   0.008   0.006   0.004   0.004   0.002   0.190
 2020 177   370  22.40  29.50  21.50 -99.000   5.461   1.736   3.725 -99.000 -99.000 -99.000   2.873   1.736   1.063   0.000   0.074   1854.   1256.    590.    660.      0.      6.   0.874   0.115   0.037   0.015   0.008   0.006   0.004   0.004   0.002   0.174
 2020 178   371  19.00  28.00  22.00 -99.000   4.572   1.470   3.102 -99.000 -99.000 -99.000   2.627   1.470   1.084   0.000   0.074   1859.   1259.    592.    661.      0.      6.   0.895   0.114   0.037   0.014   0.007   0.006   0.003   0.004   0.002   0.147
 2020 179   372  22.40  26.90  21.70 -99.000   5.316   1.730   3.586 -99.000 -99.000 -99.000   4.667   1.730   2.863   0.000   0.074   1864.   1263.    593.    664.      0.      6.   0.553   0.400   0.347   0.259   0.207   0.229   0.193   0.377   0.297   0.173
 2020 180   373  15.90  27.10  20.90 -99.000   3.766   1.237   2.529 -99.000 -99.000 -99.000   3.308   1.237   1.997   0.000   0.074   1868.   1267.    595.    666.      0.      7.   0.417   0.283   0.234   0.175   0.140   0.156   0.131   0.257   0.203   0.124
 2020 181   374  15.80  27.90  20.80 -99.000   3.780   1.249   2.531 -99.000 -99.000 -99.000   3.322   1.249   1.999   0.000   0.074   1872.   1270.    596.    668.      0.      7.   0.451   0.296   0.235   0.167   0.134   0.149   0.126   0.247   0.195   0.125
 2020 182   375  18.50  28.90  20.90 -99.000   4.490   1.497   2.993 -99.000 -99.000 -99.000   3.948   1.497   2.378   0.000   0.074   1876.   1274.    597.    670.      0.      7.   0.520   0.364   0.294   0.197   0.157   0.175   0.148   0.292   0.230   0.150
 2020 183   376  22.40  29.20  20.80 -99.000   5.435   1.829   3.605 -99.000 -99.000 -99.000   4.782   1.829   2.879   0.000   0.074   1881.   1279.    599.    673.      0.      7.   0.578   0.436   0.374   0.248   0.194   0.216   0.183   0.363   0.286   0.183
 2020 184   377  25.70  30.50  20.30 -99.000   6.284   2.139   4.145 -99.000 -99.000 -99.000   5.533   2.139   3.320   0.000   0.074   1888.   1284.    601.    676.      0.      7.   0.634   0.495   0.439   0.294   0.226   0.253   0.214   0.427   0.337   0.214
 2020 185   378  18.10  28.60  22.10 -99.000   4.384   1.505   2.880 -99.000 -99.000 -99.000   3.863   1.505   2.284   0.000   0.074   1892.   1288.    603.    679.      0.      7.   0.483   0.340   0.295   0.197   0.149   0.168   0.142   0.285   0.225   0.150
 2020 186   379  11.80  26.20  21.20 -99.000   2.782   0.964   1.818 -99.000 -99.000 -99.000   2.453   0.964   1.415   0.000   0.074   1895.   1291.    604.    680.      0.      7.   0.332   0.214   0.179   0.120   0.087   0.098   0.083   0.168   0.133   0.096
 2020 187   380  21.20  26.50  20.90 -99.000   5.004   1.747   3.257 -99.000 -99.000 -99.000   4.415   1.747   2.593   0.000   0.074   1900.   1295.    605.    683.      0.      7.   0.571   0.404   0.344   0.239   0.181   0.189   0.151   0.288   0.227   0.175
 2020 188   381  20.20  29.00  20.00 -99.000   4.866   1.712   3.155 -99.000 -99.000 -99.000   4.295   1.712   2.510   0.000   0.074   1905.   1299.    607.    685.      0.      7.   0.510   0.388   0.339   0.242   0.191   0.199   0.159   0.272   0.209   0.171
 2020 189   382  18.60  27.20  21.10 -99.000   4.428   1.569   2.858 -99.000 -99.000 -99.000   3.910   1.569   2.267   0.000   0.074   1909.   1303.    609.    687.      0.      7.   0.446   0.339   0.296   0.211   0.167   0.182   0.152   0.272   0.201   0.157
 2020 190   383  22.90  28.20  21.00 -99.000   5.507   1.967   3.540 -99.000 -99.000 -99.000   4.866   1.967   2.826   0.000   0.074   1915.   1308.    611.    690.      0.      7.   0.546   0.414   0.362   0.258   0.204   0.222   0.186   0.362   0.274   0.197
 2020 191   384  19.90  27.70  21.60 -99.000   4.778   1.719   3.059 -99.000 -99.000 -99.000   4.225   1.719   2.431   0.000   0.074   1919.   1312.    612.    693.      0.      7.   0.467   0.354   0.310   0.221   0.175   0.190   0.160   0.311   0.244   0.172
 2020 192   385  17.10  25.10  21.20 -99.000   3.976   1.438   2.538 -99.000 -99.000 -99.000   3.517   1.438   2.004   0.000   0.074   1923.   1316.    614.    695.      0.      7.   0.396   0.293   0.252   0.184   0.146   0.156   0.133   0.244   0.199   0.144
 2020 193   386  21.30  27.90  20.30 -99.000   5.076   1.849   3.227 -99.000 -99.000 -99.000   4.492   1.849   2.569   0.000   0.074   1929.   1320.    616.    697.      0.      7.   0.520   0.378   0.321   0.236   0.188   0.200   0.170   0.305   0.251   0.185
 2020 194   387  10.60  26.70  20.50 -99.000   2.495   0.914   1.581 -99.000 -99.000 -99.000   2.209   0.914   1.221   0.000   0.074   1931.   1323.    617.    698.      0.      8.   0.249   0.184   0.153   0.112   0.089   0.094   0.080   0.142   0.116   0.091
 2020 195   388  19.70  27.30  20.60 -99.000   4.674   1.723   2.951 -99.000 -99.000 -99.000   4.140   1.723   2.342   0.000   0.074   1936.   1327.    618.    701.      0.      8.   0.470   0.345   0.297   0.218   0.174   0.183   0.155   0.276   0.224   0.172
 2020 196   389  17.20  26.40  20.20 -99.000   4.019   1.489   2.530 -99.000 -99.000 -99.000   3.561   1.489   1.998   0.000   0.074   1940.   1330.    620.    703.      0.      8.   0.407   0.301   0.253   0.185   0.147   0.155   0.131   0.233   0.188   0.149
 2020 197   390  14.80  27.30  19.80 -99.000   3.488   1.300   2.187 -99.000 -99.000 -99.000   3.092   1.300   1.717   0.000   0.074   1943.   1333.    621.    704.      0.      8.   0.355   0.265   0.224   0.158   0.124   0.130   0.110   0.195   0.156   0.130
 2020 198   391  18.10  26.30  19.90 -99.000   4.220   1.580   2.640 -99.000 -99.000 -99.000   3.742   1.580   2.088   0.000   0.074   1947.   1337.    623.    707.      0.      8.   0.426   0.322   0.281   0.197   0.154   0.158   0.132   0.233   0.185   0.158
 2020 199   392  18.00  25.60  19.40 -99.000   4.146   1.560   2.586 -99.000 -99.000 -99.000   3.678   1.560   2.043   0.000   0.074   1952.   1341.    624.    709.      0.      8.   0.411   0.312   0.272   0.194   0.153   0.161   0.133   0.227   0.180   0.156
 2020 200   393  18.30  26.00  19.80 -99.000   4.247   1.605   2.642 -99.000 -99.000 -99.000   3.768   1.605   2.089   0.000   0.074   1956.   1345.    626.    711.      0.      8.   0.419   0.317   0.277   0.197   0.156   0.166   0.139   0.234   0.184   0.160
 2020 201   394  19.10  27.40  19.40 -99.000   4.490   1.701   2.788 -99.000 -99.000 -99.000   3.984   1.701   2.209   0.000   0.074   1960.   1349.    628.    713.      0.      8.   0.449   0.320   0.284   0.209   0.167   0.176   0.149   0.254   0.200   0.170
 2020 202   395  19.70  26.70  20.00 -99.000   4.612   1.756   2.855 -99.000 -99.000 -99.000   4.094   1.756   2.263   0.000   0.074   1965.   1353.    629.    715.      0.      8.   0.458   0.337   0.295   0.214   0.169   0.177   0.150   0.259   0.204   0.176
 2020 203   396  21.40  26.40  19.80 -99.000   4.987   1.908   3.079 -99.000 -99.000 -99.000   4.428   1.908   2.446   0.000   0.074   1970.   1357.    631.    718.      0.      8.   0.490   0.372   0.323   0.230   0.181   0.193   0.163   0.277   0.217   0.191
 2020 204   397  19.10  27.50  19.40 -99.000   4.492   1.728   2.764 -99.000 -99.000 -99.000   3.990   1.728   2.188   0.000   0.074   1974.   1361.    633.    720.      0.      8.   0.434   0.329   0.288   0.205   0.162   0.177   0.148   0.250   0.195   0.173
 2020 205   398  21.00  25.40  20.80 -99.000   4.873   1.884   2.989 -99.000 -99.000 -99.000   4.331   1.884   2.372   0.000   0.074   1979.   1365.    635.    722.      0.      8.   0.465   0.352   0.308   0.219   0.173   0.189   0.158   0.289   0.220   0.188
 2020 206   399  16.10  25.00  20.50 -99.000   3.710   1.442   2.268 -99.000 -99.000 -99.000   3.298   1.442   1.782   0.000   0.074   1983.   1369.    636.    724.      0.      8.   0.345   0.262   0.229   0.163   0.129   0.140   0.118   0.224   0.172   0.144
 2020 207   400  19.00  27.80  20.10 -99.000   4.506   1.759   2.746 -99.000 -99.000 -99.000   4.008   1.759   2.174   0.000   0.074   1988.   1373.    638.    726.      0.      9.   0.431   0.324   0.275   0.201   0.159   0.169   0.144   0.260   0.210   0.176
 2020 208   401  19.40  28.20  20.30 -99.000   4.626   1.815   2.811 -99.000 -99.000 -99.000   4.117   1.815   2.227   0.000   0.074   1992.   1377.    640.    728.      0.      9.   0.445   0.335   0.287   0.207   0.164   0.172   0.146   0.260   0.211   0.182
 2020 209   402  12.20  25.80  21.40 -99.000   2.855   1.127   1.728 -99.000 -99.000 -99.000   2.541   1.127   1.340   0.000   0.074   1995.   1379.    641.    730.      0.      9.   0.265   0.201   0.174   0.124   0.098   0.105   0.089   0.159   0.127   0.113
 2020 210   403  23.20  27.70  20.60 -99.000   5.514   2.190   3.323 -99.000 -99.000 -99.000   4.911   2.190   2.646   0.000   0.074   2001.   1384.    643.    732.      0.      9.   0.492   0.379   0.341   0.252   0.201   0.215   0.183   0.323   0.259   0.219
 2020 211   404  21.70  27.50  20.40 -99.000   5.122   2.045   3.077 -99.000 -99.000 -99.000   4.564   2.045   2.444   0.000   0.074   2006.   1389.    645.    735.      0.      9.   0.454   0.341   0.309   0.232   0.188   0.201   0.172   0.303   0.244   0.205
 2020 212   405  14.60  26.30  21.00 -99.000   3.413   1.371   2.042 -99.000 -99.000 -99.000   3.043   1.371   1.598   0.000   0.074   2009.   1392.    647.    736.      0.      9.   0.301   0.222   0.200   0.150   0.122   0.131   0.112   0.199   0.161   0.137
 2020 213   406  19.10  25.30  20.40 -99.000   4.396   1.772   2.624 -99.000 -99.000 -99.000   3.920   1.772   2.074   0.000   0.074   2013.   1396.    648.    738.      0.      9.   0.419   0.307   0.257   0.189   0.152   0.163   0.139   0.249   0.200   0.177
 2020 214   407  16.90  27.20  20.00 -99.000   3.972   1.607   2.365 -99.000 -99.000 -99.000   3.543   1.607   1.862   0.000   0.074   2017.   1399.    650.    740.      0.      9.   0.358   0.279   0.238   0.172   0.137   0.147   0.125   0.225   0.180   0.161
 2020 215   408  18.80  27.20  20.70 -99.000   4.429   1.798   2.631 -99.000 -99.000 -99.000   3.952   1.798   2.083   0.000   0.071   2022.   1403.    652.    742.      0.      9.   0.403   0.303   0.266   0.194   0.154   0.165   0.140   0.255   0.203   0.180
 2020 216   409   6.00  24.60  20.70 -99.000   1.372   0.559   0.813 -99.000 -99.000 -99.000   1.225   0.559   0.590   0.000   0.075   2023.   1405.    652.    743.      0.      9.   0.122   0.086   0.074   0.054   0.043   0.046   0.039   0.071   0.056   0.056
