*SOIL-PLANT-ATMOSPHERE MODULE OUTPUT FILE

*DSSAT Cropping System Model Ver. 4.8.0.019 -develop  JAN 07, 2022 20:10:05

*RUN   1        : TMEB419                   CSYCA048 UYAB1901    5
 MODEL          : CSYCA048 - Cassava
 EXPERIMENT     : UYAB1901 CS UYT_GXE
 DATA PATH      :
 TREATMENT  5   : TMEB419                   CSYCA048
  
!                                                                                                                                                                                        Soil evaporation (mm/d) by soil depth (cm):
!                                                                                                                                                                                        0-5    5-15   15-20   20-25   25-30   30-35   35-40   40-55   55-70  70-120
@YEAR DOY   DAS   SRAA  TMAXA  TMINA    REFA    EOAA    EOPA    EOSA    KCAA    KCBA    KEAA    ETAA    EPAA    ESAA    EFAA    EMAA    EOAC    ETAC    EPAC    ESAC    EFAC    EMAC    ES1D    ES2D    ES3D    ES4D    ES5D    ES6D    ES7D    ES8D    ES9D   ES10D   TRWUD
 2019 169     1  18.30  33.20  24.60 -99.000   5.402   0.000   5.402 -99.000 -99.000 -99.000   1.562   0.000   1.562   0.000   0.000    5.40    1.56    0.00    1.56    0.00    0.00   1.295   0.172   0.027   0.016   0.010   0.008   0.006   0.011   0.006   0.010   0.000
 2019 170     2  18.80  33.10  25.00 -99.000   5.532   0.000   5.532 -99.000 -99.000 -99.000   5.532   0.000   5.532   0.000   0.000   10.93    7.09    0.00    7.09    0.00    0.00   1.343   1.045   0.340   0.280   0.231   0.220   0.198   0.481   0.398   0.996   0.000
 2019 171     3  17.90  29.70  23.60 -99.000   5.073   0.000   5.073 -99.000 -99.000 -99.000   5.073   0.000   5.073   0.000   0.000   16.01   12.17    0.00   12.17    0.00    0.00   1.257   0.945   0.314   0.260   0.214   0.202   0.181   0.438   0.360   0.901   0.000
 2019 172     4  17.50  31.40  24.00 -99.000   5.042   0.000   5.042 -99.000 -99.000 -99.000   5.042   0.000   5.042   0.000   0.000   21.05   17.21    0.00   17.21    0.00    0.00   1.185   0.942   0.307   0.258   0.215   0.205   0.185   0.450   0.370   0.925   0.000
 2019 173     5  14.50  28.80  22.80 -99.000   4.011   0.000   4.011 -99.000 -99.000 -99.000   4.011   0.000   4.011   0.000   0.000   25.06   21.22    0.00   21.22    0.00    0.00   0.970   0.743   0.242   0.202   0.169   0.161   0.145   0.354   0.293   0.732   0.000
 2019 174     6  15.70  31.30  23.90 -99.000   4.532   0.000   4.532 -99.000 -99.000 -99.000   4.532   0.000   4.532   0.000   0.000   29.59   25.75    0.00   25.75    0.00    0.00   1.115   0.843   0.271   0.226   0.189   0.180   0.162   0.396   0.328   0.821   0.000
 2019 175     7  17.80  26.80  22.00 -99.000   4.802   0.000   4.802 -99.000 -99.000 -99.000   4.802   0.000   4.802   0.000   0.000   34.39   30.55    0.00   30.55    0.00    0.00   1.189   0.919   0.299   0.244   0.200   0.189   0.169   0.408   0.338   0.847   0.000
 2019 176     8  16.60  29.60  23.10 -99.000   4.686   0.000   4.686 -99.000 -99.000 -99.000   4.686   0.000   4.686   0.000   0.000   39.08   35.24    0.00   35.24    0.00    0.00   1.146   0.891   0.289   0.238   0.197   0.188   0.168   0.405   0.335   0.831   0.000
 2019 177     9  15.10  27.20  22.70 -99.000   4.114   0.000   4.114 -99.000 -99.000 -99.000   4.114   0.000   4.114   0.000   0.000   43.19   39.35    0.00   39.35    0.00    0.00   0.978   0.776   0.250   0.209   0.174   0.167   0.149   0.366   0.302   0.743   0.000
 2019 178    10  16.20  26.90  23.00 -99.000   4.408   0.000   4.408 -99.000 -99.000 -99.000   1.474   0.000   1.474   0.000   0.000   47.60   40.83    0.00   40.83    0.00    0.00   1.213   0.167   0.026   0.016   0.010   0.008   0.006   0.011   0.006   0.010   0.000
 2019 179    11  19.00  30.10  22.60 -99.000   5.313   0.000   5.313 -99.000 -99.000 -99.000   1.358   0.000   1.358   0.000   0.000   52.92   42.19    0.00   42.19    0.00    0.00   1.098   0.166   0.026   0.016   0.010   0.008   0.006   0.011   0.006   0.010   0.000
 2019 180    12  17.70  30.80  23.90 -99.000   5.012   0.000   5.012 -99.000 -99.000 -99.000   1.252   0.000   1.252   0.000   0.000   57.93   43.44    0.00   43.44    0.00    0.00   0.994   0.165   0.026   0.016   0.010   0.008   0.006   0.011   0.006   0.010   0.000
 2019 181    13  16.60  30.10  24.60 -99.000   4.671   0.000   4.671 -99.000 -99.000 -99.000   1.425   0.000   1.425   0.000   0.000   62.60   44.86    0.00   44.86    0.00    0.00   1.163   0.169   0.026   0.016   0.010   0.008   0.006   0.011   0.006   0.010   0.000
 2019 182    14  16.90  29.20  22.40 -99.000   4.714   0.000   4.714 -99.000 -99.000 -99.000   4.714   0.000   4.714   0.000   0.000   67.31   49.58    0.00   49.58    0.00    0.00   1.204   0.881   0.284   0.236   0.194   0.186   0.165   0.404   0.335   0.825   0.000
 2019 183    15  17.50  29.30  23.60 -99.000   4.934   0.012   4.922 -99.000 -99.000 -99.000   4.934   0.012   4.922   0.000   0.000   72.25   54.51    0.01   54.50    0.00    0.00   1.214   0.924   0.298   0.249   0.207   0.198   0.177   0.428   0.354   0.874   0.001
 2019 184    16  16.90  29.70  23.90 -99.000   4.763   0.026   4.738 -99.000 -99.000 -99.000   1.564   0.026   1.538   0.000   0.000   77.01   56.07    0.04   56.04    0.00    0.00   1.277   0.169   0.026   0.016   0.010   0.008   0.006   0.011   0.006   0.009   0.003
 2019 185    17  16.20  30.00  23.50 -99.000   4.567   0.053   4.514 -99.000 -99.000 -99.000   4.567   0.053   4.514   0.000   0.000   81.58   60.64    0.09   60.55    0.00    0.00   1.112   0.862   0.278   0.233   0.197   0.186   0.168   0.390   0.318   0.771   0.005
 2019 186    18  17.40  28.50  22.90 -99.000   4.827   0.095   4.731 -99.000 -99.000 -99.000   4.826   0.095   4.731   0.000   0.000   86.40   65.47    0.18   65.28    0.00    0.00   1.176   0.902   0.297   0.249   0.212   0.197   0.178   0.409   0.330   0.781   0.009
 2019 187    19  17.40  30.20  24.10 -99.000   4.947   0.140   4.805 -99.000 -99.000 -99.000   4.945   0.140   4.805   0.000   0.000   91.35   70.41    0.32   70.09    0.00    0.00   1.156   0.887   0.299   0.253   0.215   0.204   0.185   0.425   0.349   0.832   0.014
 2019 188    20  15.90  29.90  24.60 -99.000   4.487   0.181   4.304 -99.000 -99.000 -99.000   4.485   0.181   4.304   0.000   0.000   95.84   74.90    0.51   74.39    0.00    0.00   1.038   0.798   0.269   0.226   0.190   0.181   0.163   0.375   0.309   0.753   0.018
 2019 189    21  16.40  25.40  22.30 -99.000   4.343   0.236   4.105 -99.000 -99.000 -99.000   4.340   0.236   4.105   0.000   0.000  100.18   79.24    0.74   78.50    0.00    0.00   1.011   0.753   0.255   0.215   0.180   0.171   0.154   0.354   0.292   0.720   0.024
 2019 190    22  16.60  29.20  23.50 -99.000   4.597   0.317   4.276 -99.000 -99.000 -99.000   4.593   0.317   4.276   0.000   0.000  104.78   83.83    1.06   82.77    0.00    0.00   1.020   0.782   0.258   0.220   0.187   0.180   0.163   0.379   0.313   0.774   0.032
 2019 191    23  17.70  28.70  23.40 -99.000   4.841   0.399   4.437 -99.000 -99.000 -99.000   4.837   0.399   4.437   0.000   0.000  109.62   88.67    1.46   87.21    0.00    0.00   1.042   0.809   0.265   0.225   0.191   0.185   0.169   0.400   0.330   0.822   0.040
 2019 192    24  15.40  26.50  22.30 -99.000   4.063   0.401   3.658 -99.000 -99.000 -99.000   4.059   0.401   3.658   0.000   0.000  113.68   92.73    1.86   90.87    0.00    0.00   0.874   0.661   0.215   0.183   0.155   0.149   0.136   0.330   0.272   0.682   0.040
 2019 193    25  16.20  28.10  22.80 -99.000   4.360   0.496   3.858 -99.000 -99.000 -99.000   4.354   0.496   3.858   0.000   0.000  118.04   97.08    2.35   94.73    0.00    0.00   0.952   0.717   0.234   0.198   0.167   0.156   0.140   0.333   0.274   0.688   0.050
 2019 194    26  18.10  29.80  23.10 -99.000   4.978   0.644   4.327 -99.000 -99.000 -99.000   4.971   0.644   4.327   0.000   0.000  123.02  102.05    3.00   99.05    0.00    0.00   1.048   0.812   0.263   0.221   0.185   0.174   0.156   0.378   0.311   0.780   0.064
 2019 195    27  17.60  29.20  22.70 -99.000   4.753   0.690   4.054 -99.000 -99.000 -99.000   4.744   0.690   4.054   0.000   0.000  127.77  106.80    3.69  103.11    0.00    0.00   0.982   0.766   0.250   0.211   0.178   0.167   0.150   0.349   0.286   0.716   0.069
 2019 196    28  17.00  29.00  23.40 -99.000   4.614   0.741   3.867 -99.000 -99.000 -99.000   4.607   0.741   3.867   0.000   0.000  132.39  111.40    4.43  106.97    0.00    0.00   0.959   0.732   0.241   0.203   0.172   0.160   0.145   0.327   0.267   0.661   0.074
 2019 197    29  17.90  31.70  23.40 -99.000   4.983   0.876   4.098 -99.000 -99.000 -99.000   4.975   0.876   4.098   0.000   0.000  137.37  116.38    5.31  111.07    0.00    0.00   0.977   0.755   0.254   0.215   0.183   0.174   0.158   0.360   0.295   0.726   0.088
 2019 198    30  18.70  31.50  23.30 -99.000   5.152   0.978   4.163 -99.000 -99.000 -99.000   5.141   0.978   4.163   0.000   0.000  142.52  121.52    6.28  115.24    0.00    0.00   0.977   0.763   0.251   0.214   0.182   0.176   0.160   0.373   0.307   0.760   0.098
 2019 199    31  15.30  28.70  24.20 -99.000   4.101   0.852   3.239 -99.000 -99.000 -99.000   4.091   0.852   3.239   0.000   0.000  146.62  125.61    7.14  118.47    0.00    0.00   0.748   0.592   0.196   0.165   0.139   0.134   0.122   0.293   0.242   0.608   0.085
 2019 200    32  16.00  27.60  21.90 -99.000   4.144   0.925   3.208 -99.000 -99.000 -99.000   4.133   0.925   3.208   0.000   0.000  150.77  129.74    8.06  121.68    0.00    0.00   0.774   0.597   0.197   0.162   0.135   0.129   0.117   0.281   0.233   0.583   0.092
 2019 201    33  18.40  29.30  22.70 -99.000   4.904   1.173   3.717 -99.000 -99.000 -99.000   4.890   1.173   3.717   0.000   0.000  155.67  134.63    9.23  125.40    0.00    0.00   0.921   0.693   0.231   0.190   0.156   0.148   0.133   0.320   0.264   0.661   0.117
 2019 202    34  18.30  30.00  22.80 -99.000   4.883   1.251   3.621 -99.000 -99.000 -99.000   4.871   1.251   3.621   0.000   0.000  160.55  139.50   10.48  129.02    0.00    0.00   0.857   0.674   0.220   0.184   0.153   0.146   0.132   0.322   0.266   0.666   0.125
 2019 203    35  16.30  28.50  22.90 -99.000   4.257   1.161   3.086 -99.000 -99.000 -99.000   2.662   1.161   1.501   0.000   0.000  164.81  142.17   11.64  130.52    0.00    0.00   1.242   0.166   0.026   0.016   0.010   0.008   0.006   0.011   0.006   0.010   0.116
 2019 204    36  17.50  30.10  23.50 -99.000   4.658   1.339   3.306 -99.000 -99.000 -99.000   2.809   1.339   1.469   0.000   0.000  169.47  144.97   12.98  131.99    0.00    0.00   1.213   0.164   0.026   0.016   0.010   0.008   0.006   0.011   0.006   0.010   0.134
 2019 205    37  16.20  31.10  24.20 -99.000   4.357   1.324   3.017 -99.000 -99.000 -99.000   2.694   1.324   1.371   0.000   0.000  173.83  147.67   14.31  133.36    0.00    0.00   1.119   0.160   0.025   0.016   0.010   0.008   0.006   0.011   0.006   0.010   0.132
 2019 206    38  16.00  26.20  23.40 -99.000   4.036   1.290   2.731 -99.000 -99.000 -99.000   2.768   1.290   1.477   0.000   0.000  177.86  150.44   15.60  134.84    0.00    0.00   1.223   0.163   0.025   0.015   0.010   0.008   0.006   0.011   0.006   0.010   0.129
 2019 207    39  14.90  28.40  23.10 -99.000   3.858   1.293   2.549 -99.000 -99.000 -99.000   3.842   1.293   2.549   0.000   0.000  181.72  154.28   16.89  137.39    0.00    0.00   0.634   0.471   0.143   0.121   0.102   0.099   0.091   0.226   0.188   0.474   0.129
 2019 208    40  15.70  28.50  23.20 -99.000   4.053   1.425   2.612 -99.000 -99.000 -99.000   2.916   1.425   1.491   0.000   0.000  185.77  157.19   18.32  138.88    0.00    0.00   1.238   0.164   0.024   0.015   0.010   0.008   0.006   0.011   0.006   0.010   0.143
 2019 209    41  16.50  27.90  24.30 -99.000   4.240   1.556   2.663 -99.000 -99.000 -99.000   2.902   1.556   1.346   0.000   0.000  190.01  160.10   19.87  140.22    0.00    0.00   1.098   0.160   0.024   0.015   0.009   0.008   0.006   0.011   0.006   0.010   0.156
 2019 210    42  15.80  29.20  23.30 -99.000   4.064   1.561   2.487 -99.000 -99.000 -99.000   2.774   1.561   1.213   0.000   0.000  194.08  162.87   21.43  141.44    0.00    0.00   0.969   0.156   0.023   0.014   0.009   0.008   0.006   0.011   0.006   0.010   0.156
 2019 211    43  15.10  29.90  23.10 -99.000   3.889   1.555   2.316 -99.000 -99.000 -99.000   2.664   1.555   1.109   0.000   0.000  197.97  165.53   22.99  142.55    0.00    0.00   0.870   0.152   0.023   0.014   0.009   0.007   0.006   0.011   0.006   0.010   0.155
 2019 212    44  16.00  28.70  23.80 -99.000   4.071   1.692   2.359 -99.000 -99.000 -99.000   2.715   1.692   1.023   0.000   0.000  202.04  168.25   24.68  143.57    0.00    0.00   0.790   0.148   0.022   0.014   0.009   0.007   0.006   0.011   0.006   0.010   0.169
 2019 213    45  16.80  28.70  22.90 -99.000   4.230   1.820   2.389 -99.000 -99.000 -99.000   3.084   1.820   1.264   0.000   0.000  206.27  171.33   26.50  144.83    0.00    0.00   1.034   0.147   0.022   0.014   0.009   0.007   0.006   0.011   0.006   0.010   0.182
 2019 214    46  15.90  27.60  22.60 -99.000   3.978   1.767   2.189 -99.000 -99.000 -99.000   3.955   1.767   2.189   0.000   0.000  210.24  175.29   28.27  147.02    0.00    0.00   0.586   0.389   0.109   0.094   0.080   0.080   0.075   0.194   0.165   0.417   0.177
 2019 215    47  15.50  28.80  22.80 -99.000   3.935   1.805   2.109 -99.000 -99.000 -99.000   3.914   1.805   2.109   0.000   0.000  214.18  179.20   30.07  149.13    0.00    0.00   0.550   0.397   0.103   0.089   0.076   0.076   0.071   0.186   0.159   0.402   0.181
 2019 216    48  17.10  29.20  22.90 -99.000   4.340   2.052   2.265 -99.000 -99.000 -99.000   3.550   2.052   1.498   0.000   0.000  218.52  182.75   32.12  150.63    0.00    0.00   1.256   0.162   0.020   0.013   0.008   0.007   0.005   0.010   0.006   0.010   0.205
 2019 217    49  16.30  28.20  23.40 -99.000   4.087   1.988   2.077 -99.000 -99.000 -99.000   4.064   1.988   2.077   0.000   0.000  222.61  186.82   34.11  152.71    0.00    0.00   0.522   0.408   0.119   0.094   0.072   0.071   0.067   0.178   0.154   0.391   0.199
 2019 218    50  15.90  28.50  23.10 -99.000   4.001   2.005   1.978 -99.000 -99.000 -99.000   3.983   2.005   1.978   0.000   0.000  226.61  190.80   36.12  154.68    0.00    0.00   0.520   0.394   0.128   0.100   0.072   0.062   0.059   0.157   0.137   0.348   0.201
 2019 219    51  15.40  25.20  23.10 -99.000   3.728   1.912   1.793 -99.000 -99.000 -99.000   3.704   1.912   1.793   0.000   0.000  230.34  194.50   38.03  156.48    0.00    0.00   0.466   0.351   0.116   0.097   0.076   0.062   0.052   0.139   0.122   0.311   0.191
 2019 220    52  15.80  26.50  22.90 -99.000   3.866   2.035   1.808 -99.000 -99.000 -99.000   3.843   2.035   1.808   0.000   0.000  234.20  198.35   40.06  158.28    0.00    0.00   0.451   0.344   0.116   0.098   0.082   0.073   0.056   0.142   0.125   0.319   0.204
 2019 221    53  16.70  27.90  23.40 -99.000   4.148   2.236   1.885 -99.000 -99.000 -99.000   4.122   2.236   1.885   0.000   0.000  238.35  202.47   42.30  160.17    0.00    0.00   0.461   0.355   0.117   0.099   0.084   0.080   0.066   0.151   0.133   0.339   0.224
 2019 222    54  17.10  29.20  23.50 -99.000   4.298   2.369   1.900 -99.000 -99.000 -99.000   4.268   2.369   1.900   0.000   0.000  242.65  206.74   44.67  162.07    0.00    0.00   0.455   0.355   0.117   0.099   0.083   0.079   0.070   0.156   0.137   0.349   0.237
 2019 223    55  15.90  29.60  23.50 -99.000   4.002   2.253   1.719 -99.000 -99.000 -99.000   3.972   2.253   1.719   0.000   0.000  246.65  210.71   46.92  163.79    0.00    0.00   0.434   0.318   0.104   0.087   0.072   0.070   0.062   0.139   0.122   0.312   0.225
 2019 224    56  16.60  27.50  22.30 -99.000   4.053   2.330   1.692 -99.000 -99.000 -99.000   4.022   2.330   1.692   0.000   0.000  250.70  214.73   49.25  165.48    0.00    0.00   0.437   0.317   0.101   0.084   0.069   0.067   0.060   0.134   0.118   0.304   0.233
 2019 225    57  17.10  29.60  22.80 -99.000   4.272   2.511   1.732 -99.000 -99.000 -99.000   4.242   2.511   1.732   0.000   0.000  254.97  218.97   51.76  167.21    0.00    0.00   0.439   0.328   0.104   0.086   0.070   0.068   0.061   0.138   0.122   0.315   0.251
 2019 226    58  17.40  29.20  23.90 -99.000   4.353   2.609   1.713 -99.000 -99.000 -99.000   4.144   2.609   1.535   0.000   0.000  259.33  223.12   54.37  168.75    0.00    0.00   1.279   0.167   0.025   0.015   0.010   0.008   0.006   0.010   0.006   0.009   0.261
 2019 227    59  16.90  28.60  22.00 -99.000   4.128   2.517   1.578 -99.000 -99.000 -99.000   3.977   2.517   1.460   0.000   0.000  263.46  227.09   56.89  170.21    0.00    0.00   1.212   0.162   0.025   0.015   0.009   0.008   0.006   0.010   0.006   0.009   0.252
 2019 228    60  16.30  28.40  22.20 -99.000   3.973   2.471   1.473 -99.000 -99.000 -99.000   3.936   2.471   1.465   0.000   0.000  267.43  231.03   59.36  171.67    0.00    0.00   1.223   0.157   0.024   0.015   0.009   0.007   0.006   0.009   0.006   0.009   0.247
 2019 229    61  16.90  29.70  23.00 -99.000   4.195   2.657   1.509 -99.000 -99.000 -99.000   4.037   2.657   1.380   0.000   0.000  271.62  235.07   62.02  173.05    0.00    0.00   1.144   0.152   0.023   0.014   0.009   0.007   0.006   0.009   0.006   0.009   0.266
 2019 230    62  16.60  28.80  22.60 -99.000   4.056   2.609   1.415 -99.000 -99.000 -99.000   4.025   2.609   1.415   0.000   0.000  275.68  239.09   64.63  174.47    0.00    0.00   0.345   0.273   0.089   0.074   0.058   0.054   0.048   0.111   0.100   0.263   0.261
 2019 231    63  16.00  28.10  22.50 -99.000   3.887   2.538   1.315 -99.000 -99.000 -99.000   3.853   2.538   1.315   0.000   0.000  279.57  242.94   67.16  175.78    0.00    0.00   0.341   0.254   0.086   0.072   0.057   0.051   0.042   0.096   0.087   0.230   0.254
 2019 232    64  16.80  29.90  23.80 -99.000   4.189   2.788   1.368 -99.000 -99.000 -99.000   4.157   2.788   1.368   0.000   0.000  283.76  247.10   69.95  177.15    0.00    0.00   0.342   0.262   0.086   0.072   0.060   0.056   0.048   0.103   0.093   0.247   0.279
 2019 233    65  16.00  29.50  23.20 -99.000   3.946   2.668   1.250 -99.000 -99.000 -99.000   3.918   2.668   1.250   0.000   0.000  287.70  251.02   72.62  178.40    0.00    0.00   0.314   0.241   0.079   0.066   0.056   0.052   0.047   0.096   0.082   0.217   0.267
 2019 234    66  17.50  29.10  22.50 -99.000   4.276   2.939   1.308 -99.000 -99.000 -99.000   4.247   2.939   1.308   0.000   0.000  291.98  255.27   75.56  179.71    0.00    0.00   0.332   0.247   0.084   0.070   0.059   0.056   0.051   0.106   0.083   0.221   0.294
 2019 235    67  14.80  28.40  22.80 -99.000   3.588   2.497   1.060 -99.000 -99.000 -99.000   3.557   2.497   1.060   0.000   0.000  295.57  258.82   78.06  180.77    0.00    0.00   0.265   0.200   0.067   0.056   0.048   0.045   0.041   0.092   0.070   0.177   0.250
 2019 236    68  15.70  28.50  22.60 -99.000   3.802   2.691   1.083 -99.000 -99.000 -99.000   3.774   2.691   1.083   0.000   0.000  299.37  262.60   80.75  181.85    0.00    0.00   0.267   0.200   0.068   0.057   0.048   0.046   0.041   0.096   0.077   0.183   0.269
 2019 237    69  17.80  28.40  22.90 -99.000   4.306   3.091   1.184 -99.000 -99.000 -99.000   4.275   3.091   1.184   0.000   0.000  303.67  266.87   83.84  183.04    0.00    0.00   0.294   0.216   0.073   0.061   0.052   0.049   0.045   0.104   0.085   0.206   0.309
 2019 238    70  17.50  29.30  22.50 -99.000   4.258   3.096   1.131 -99.000 -99.000 -99.000   4.227   3.096   1.131   0.000   0.000  307.93  271.10   86.93  184.17    0.00    0.00   0.276   0.208   0.068   0.057   0.048   0.046   0.042   0.100   0.082   0.205   0.310
 2019 239    71  16.40  26.80  22.60 -99.000   3.878   2.851   0.999 -99.000 -99.000 -99.000   3.850   2.851   0.999   0.000   0.000  311.81  274.95   89.79  185.16    0.00    0.00   0.248   0.183   0.059   0.049   0.041   0.040   0.036   0.088   0.073   0.182   0.285
 2019 240    72  16.40  29.90  22.80 -99.000   4.015   2.985   0.998 -99.000 -99.000 -99.000   3.984   2.985   0.998   0.000   0.000  315.83  278.93   92.77  186.16    0.00    0.00   0.257   0.183   0.059   0.049   0.041   0.039   0.035   0.086   0.071   0.180   0.299
 2019 241    73  18.30  31.10  22.70 -99.000   4.529   3.412   1.086 -99.000 -99.000 -99.000   4.499   3.412   1.086   0.000   0.000  320.36  283.43   96.18  187.25    0.00    0.00   0.283   0.199   0.064   0.053   0.044   0.041   0.037   0.092   0.077   0.195   0.341
 2019 242    74  16.30  30.60  23.20 -99.000   4.022   3.060   0.928 -99.000 -99.000 -99.000   3.988   3.060   0.928   0.000   0.000  324.38  287.42   99.24  188.18    0.00    0.00   0.233   0.172   0.056   0.046   0.038   0.036   0.032   0.079   0.066   0.169   0.306
 2019 243    75  16.50  28.40  23.30 -99.000   3.973   3.052   0.886 -99.000 -99.000 -99.000   3.938   3.052   0.886   0.000   0.000  328.35  291.36  102.30  189.06    0.00    0.00   0.221   0.166   0.054   0.045   0.038   0.035   0.032   0.076   0.062   0.157   0.305
 2019 244    76  18.60  29.20  23.20 -99.000   4.514   3.503   0.974 -99.000 -99.000 -99.000   4.477   3.503   0.974   0.000   0.000  332.86  295.84  105.80  190.04    0.00    0.00   0.237   0.182   0.059   0.049   0.042   0.039   0.036   0.085   0.070   0.175   0.350
 2019 245    77  17.10  28.80  23.50 -99.000   4.134   3.244   0.864 -99.000 -99.000 -99.000   4.108   3.244   0.864   0.000   0.000  337.00  299.94  109.04  190.90    0.00    0.00   0.208   0.160   0.052   0.043   0.036   0.035   0.032   0.077   0.063   0.158   0.324
 2019 246    78  17.30  30.60  23.30 -99.000   4.253   3.358   0.863 -99.000 -99.000 -99.000   4.220   3.358   0.863   0.000   0.000  341.25  304.16  112.40  191.76    0.00    0.00   0.215   0.159   0.051   0.042   0.035   0.034   0.031   0.076   0.062   0.157   0.336
 2019 247    79  17.10  30.80  23.50 -99.000   4.218   3.350   0.827 -99.000 -99.000 -99.000   4.177   3.350   0.827   0.000   0.000  345.47  308.34  115.75  192.59    0.00    0.00   0.212   0.155   0.050   0.042   0.034   0.032   0.029   0.070   0.057   0.145   0.335
 2019 248    80  17.70  29.20  22.80 -99.000   4.268   3.416   0.810 -99.000 -99.000 -99.000   4.226   3.416   0.810   0.000   0.000  349.74  312.57  119.17  193.40    0.00    0.00   0.202   0.152   0.050   0.042   0.035   0.032   0.029   0.069   0.057   0.143   0.342
 2019 249    81  18.00  30.70  23.10 -99.000   4.417   3.566   0.816 -99.000 -99.000 -99.000   4.382   3.566   0.816   0.000   0.000  354.16  316.95  122.73  194.22    0.00    0.00   0.195   0.148   0.050   0.042   0.036   0.034   0.031   0.072   0.060   0.150   0.357
 2019 250    82  17.50  30.80  23.20 -99.000   4.297   3.490   0.768 -99.000 -99.000 -99.000   4.258   3.490   0.768   0.000   0.000  358.45  321.21  126.22  194.98    0.00    0.00   0.189   0.139   0.047   0.039   0.033   0.032   0.029   0.067   0.055   0.139   0.349
 2019 251    83  16.30  29.50  22.50 -99.000   3.927   3.210   0.683 -99.000 -99.000 -99.000   3.893   3.210   0.683   0.000   0.000  362.38  325.10  129.43  195.67    0.00    0.00   0.169   0.124   0.041   0.035   0.029   0.028   0.025   0.059   0.049   0.124   0.321
 2019 252    84  17.00  29.10  22.00 -99.000   4.060   3.339   0.687 -99.000 -99.000 -99.000   4.027   3.339   0.687   0.000   0.000  366.44  329.13  132.77  196.35    0.00    0.00   0.172   0.127   0.042   0.035   0.029   0.028   0.025   0.059   0.049   0.122   0.334
 2019 253    85  17.40  29.70  22.50 -99.000   4.197   3.470   0.693 -99.000 -99.000 -99.000   4.163   3.470   0.693   0.000   0.000  370.64  333.29  136.24  197.05    0.00    0.00   0.173   0.129   0.043   0.035   0.029   0.028   0.025   0.060   0.049   0.123   0.347
 2019 254    86  17.50  28.50  23.40 -99.000   4.192   3.480   0.677 -99.000 -99.000 -99.000   4.156   3.480   0.677   0.000   0.000  374.83  337.44  139.72  197.72    0.00    0.00   0.166   0.125   0.041   0.034   0.029   0.027   0.025   0.059   0.049   0.120   0.348
 2019 255    87  17.30  30.40  23.10 -99.000   4.218   3.517   0.666 -99.000 -99.000 -99.000   4.183   3.517   0.666   0.000   0.000  379.05  341.63  143.24  198.39    0.00    0.00   0.159   0.121   0.041   0.035   0.029   0.028   0.025   0.058   0.049   0.121   0.352
 2019 256    88  16.90  31.00  24.20 -99.000   4.176   3.491   0.646 -99.000 -99.000 -99.000   4.136   3.491   0.646   0.000   0.000  383.22  345.76  146.73  199.04    0.00    0.00   0.157   0.117   0.039   0.033   0.028   0.027   0.024   0.057   0.047   0.117   0.349
 2019 257    89  17.00  30.90  23.00 -99.000   4.160   3.494   0.629 -99.000 -99.000 -99.000   4.123   3.494   0.629   0.000   0.000  387.38  349.89  150.22  199.66    0.00    0.00   0.159   0.114   0.038   0.031   0.026   0.025   0.023   0.054   0.045   0.113   0.349
 2019 258    90  17.80  29.90  23.40 -99.000   4.321   3.654   0.639 -99.000 -99.000 -99.000   4.293   3.654   0.639   0.000   0.000  391.70  354.18  153.88  200.30    0.00    0.00   0.160   0.117   0.038   0.032   0.027   0.026   0.023   0.055   0.046   0.115   0.365
 2019 259    91  15.80  28.60  22.60 -99.000   3.758   3.184   0.544 -99.000 -99.000 -99.000   3.728   3.184   0.544   0.000   0.000  395.46  357.91  157.06  200.85    0.00    0.00   0.135   0.100   0.033   0.028   0.023   0.022   0.020   0.048   0.039   0.096   0.318
 2019 260    92  16.50  30.60  22.80 -99.000   4.016   3.413   0.570 -99.000 -99.000 -99.000   3.983   3.413   0.570   0.000   0.000  399.48  361.89  160.47  201.42    0.00    0.00   0.136   0.104   0.035   0.030   0.025   0.024   0.022   0.050   0.042   0.102   0.341
 2019 261    93  18.10  30.80  23.50 -99.000   4.434   3.782   0.617 -99.000 -99.000 -99.000   4.400   3.782   0.617   0.000   0.000  403.91  366.29  164.26  202.04    0.00    0.00   0.148   0.113   0.038   0.032   0.027   0.025   0.023   0.054   0.045   0.112   0.378
 2019 262    94  16.10  29.20  21.90 -99.000   3.833   3.278   0.524 -99.000 -99.000 -99.000   3.802   3.278   0.524   0.000   0.000  407.74  370.09  167.53  202.56    0.00    0.00   0.129   0.095   0.032   0.027   0.023   0.021   0.019   0.045   0.038   0.095   0.328
 2019 263    95  20.10  31.20  22.30 -99.000   4.901   4.206   0.659 -99.000 -99.000 -99.000   4.865   4.206   0.659   0.000   0.000  412.64  374.96  171.74  203.22    0.00    0.00   0.160   0.121   0.040   0.033   0.028   0.027   0.024   0.058   0.048   0.121   0.421
 2019 264    96  19.50  30.80  22.50 -99.000   4.739   4.073   0.630 -99.000 -99.000 -99.000   4.704   4.073   0.630   0.000   0.000  417.38  379.66  175.81  203.85    0.00    0.00   0.157   0.116   0.038   0.031   0.026   0.025   0.023   0.055   0.045   0.114   0.407
 2019 265    97  20.00  31.50  22.40 -99.000   4.895   4.213   0.646 -99.000 -99.000 -99.000   4.858   4.213   0.646   0.000   0.000  422.28  384.52  180.02  204.49    0.00    0.00   0.164   0.119   0.039   0.032   0.027   0.025   0.023   0.055   0.046   0.116   0.421
 2019 266    98  17.70  32.10  23.40 -99.000   4.388   3.775   0.577 -99.000 -99.000 -99.000   4.351   3.775   0.576   0.000   0.000  426.67  388.87  183.80  205.07    0.00    0.00   0.147   0.107   0.035   0.029   0.024   0.023   0.020   0.049   0.040   0.103   0.378
 2019 267    99  18.00  30.90  24.00 -99.000   4.426   3.808   0.581 -99.000 -99.000 -99.000   4.388   3.808   0.580   0.000   0.000  431.09  393.26  187.61  205.65    0.00    0.00   0.148   0.109   0.036   0.030   0.025   0.023   0.021   0.049   0.040   0.100   0.381
 2019 268   100  19.60  32.20  23.20 -99.000   4.858   4.172   0.637 -99.000 -99.000 -99.000   4.807   4.172   0.635   0.000   0.000  435.95  398.07  191.78  206.29    0.00    0.00   0.158   0.119   0.039   0.033   0.028   0.026   0.024   0.056   0.045   0.109   0.417
 2019 269   101  18.40  30.20  22.80 -99.000   4.453   3.824   0.587 -99.000 -99.000 -99.000   4.409   3.824   0.584   0.000   0.000  440.40  402.48  195.60  206.87    0.00    0.00   0.145   0.109   0.036   0.030   0.026   0.024   0.022   0.050   0.042   0.101   0.382
 2019 270   102  17.30  29.50  22.30 -99.000   4.141   3.559   0.547 -99.000 -99.000 -99.000   4.103   3.559   0.544   0.000   0.000  444.55  406.58  199.16  207.42    0.00    0.00   0.134   0.101   0.033   0.028   0.024   0.022   0.020   0.047   0.039   0.095   0.356
 2019 271   103  19.60  31.70  22.10 -99.000   4.796   4.118   0.634 -99.000 -99.000 -99.000   4.747   4.118   0.629   0.000   0.000  449.34  411.33  203.28  208.04    0.00    0.00   0.155   0.117   0.038   0.032   0.027   0.025   0.023   0.055   0.046   0.111   0.412
 2019 272   104  18.20  31.50  22.70 -99.000   4.463   3.830   0.593 -99.000 -99.000 -99.000   4.419   3.830   0.589   0.000   0.000  453.80  415.74  207.11  208.63    0.00    0.00   0.146   0.107   0.036   0.030   0.026   0.024   0.022   0.051   0.042   0.105   0.383
 2019 273   105  17.40  31.20  23.60 -99.000   4.280   3.671   0.572 -99.000 -99.000 -99.000   4.237   3.671   0.567   0.000   0.000  458.08  419.98  210.78  209.20    0.00    0.00   0.140   0.102   0.034   0.029   0.024   0.023   0.021   0.049   0.041   0.102   0.367
 2019 274   106  17.90  31.20  23.40 -99.000   4.396   3.772   0.592 -99.000 -99.000 -99.000   4.358   3.772   0.586   0.000   0.000  462.48  424.34  214.55  209.79    0.00    0.00   0.145   0.108   0.036   0.030   0.026   0.024   0.022   0.050   0.042   0.104   0.377
 2019 275   107  17.00  28.90  23.30 -99.000   4.073   3.484   0.554 -99.000 -99.000 -99.000   4.032   3.484   0.548   0.000   0.000  466.55  428.37  218.04  210.33    0.00    0.00   0.136   0.103   0.034   0.028   0.024   0.022   0.020   0.047   0.038   0.095   0.348
 2019 276   108  17.10  29.50  22.60 -99.000   4.103   3.504   0.562 -99.000 -99.000 -99.000   4.059   3.504   0.555   0.000   0.000  470.66  432.43  221.54  210.89    0.00    0.00   0.136   0.103   0.034   0.028   0.024   0.022   0.020   0.049   0.040   0.098   0.350
 2019 277   109  17.90  29.90  23.50 -99.000   4.341   3.705   0.598 -99.000 -99.000 -99.000   4.293   3.705   0.588   0.000   0.000  475.00  436.72  225.25  211.48    0.00    0.00   0.145   0.109   0.036   0.030   0.026   0.024   0.022   0.051   0.042   0.105   0.370
 2019 278   110  18.00  30.80  23.00 -99.000   4.392   3.746   0.609 -99.000 -99.000 -99.000   4.345   3.746   0.599   0.000   0.001  479.39  441.07  228.99  212.07    0.00    0.00   0.145   0.111   0.036   0.030   0.025   0.024   0.022   0.053   0.043   0.109   0.375
 2019 279   111  17.20  29.20  22.10 -99.000   4.097   3.491   0.573 -99.000 -99.000 -99.000   4.055   3.491   0.563   0.000   0.001  483.48  445.12  232.48  212.64    0.00    0.00   0.140   0.104   0.034   0.028   0.024   0.022   0.020   0.049   0.040   0.101   0.349
 2019 280   112  15.90  28.90  22.30 -99.000   3.783   3.218   0.535 -99.000 -99.000 -99.000   3.742   3.218   0.524   0.000   0.001  487.27  448.87  235.70  213.16    0.00    0.00   0.134   0.098   0.032   0.027   0.022   0.021   0.019   0.044   0.036   0.091   0.322
 2019 281   113  16.90  29.00  22.60 -99.000   4.034   3.419   0.576 -99.000 -99.000 -99.000   3.984   3.419   0.564   0.000   0.001  491.30  452.85  239.12  213.73    0.00    0.00   0.142   0.106   0.035   0.029   0.025   0.023   0.021   0.047   0.039   0.097   0.342
 2019 282   114  15.60  31.20  22.60 -99.000   3.813   3.231   0.551 -99.000 -99.000 -99.000   3.770   3.231   0.539   0.000   0.001  495.11  456.62  242.35  214.26    0.00    0.01   0.132   0.099   0.033   0.028   0.024   0.023   0.020   0.046   0.038   0.095   0.323
 2019 283   115  16.60  31.40  22.60 -99.000   4.065   3.442   0.595 -99.000 -99.000 -99.000   4.024   3.442   0.581   0.000   0.001  499.18  460.64  245.79  214.85    0.00    0.01   0.145   0.105   0.035   0.030   0.025   0.024   0.022   0.050   0.041   0.103   0.344
 2019 284   116  17.40  30.50  22.70 -99.000   4.225   3.571   0.626 -99.000 -99.000 -99.000   4.182   3.571   0.609   0.000   0.001  503.40  464.83  249.36  215.45    0.00    0.01   0.152   0.111   0.037   0.031   0.026   0.025   0.022   0.053   0.044   0.109   0.357
 2019 285   117  17.70  31.80  21.90 -99.000   4.334   3.648   0.651 -99.000 -99.000 -99.000   4.282   3.648   0.632   0.000   0.001  507.74  469.11  253.01  216.09    0.00    0.01   0.155   0.117   0.038   0.032   0.027   0.025   0.023   0.055   0.046   0.113   0.365
 2019 286   118  17.30  31.70  22.30 -99.000   4.244   3.557   0.646 -99.000 -99.000 -99.000   4.186   3.557   0.627   0.000   0.002  511.98  473.29  256.57  216.71    0.00    0.01   0.149   0.114   0.038   0.032   0.028   0.026   0.024   0.055   0.046   0.115   0.356
 2019 287   119  18.00  32.10  22.60 -99.000   4.442   3.715   0.688 -99.000 -99.000 -99.000   4.383   3.715   0.666   0.000   0.002  516.42  477.68  260.28  217.38    0.00    0.01   0.160   0.122   0.041   0.034   0.029   0.027   0.025   0.059   0.049   0.121   0.371
 2019 288   120  16.40  32.10  23.60 -99.000   4.078   3.397   0.646 -99.000 -99.000 -99.000   4.023   3.397   0.624   0.000   0.002  520.50  481.70  263.68  218.00    0.00    0.02   0.155   0.113   0.038   0.032   0.027   0.025   0.023   0.054   0.045   0.111   0.340
 2019 289   121  18.70  28.30  22.70 -99.000   4.438   3.682   0.716 -99.000 -99.000 -99.000   4.374   3.682   0.690   0.000   0.002  524.94  486.07  267.36  218.69    0.00    0.02   0.171   0.127   0.042   0.035   0.030   0.028   0.026   0.059   0.049   0.122   0.368
 2019 290   122  15.50  31.60  23.00 -99.000   3.820   3.165   0.626 -99.000 -99.000 -99.000   3.770   3.165   0.602   0.000   0.003  528.76  489.84  270.53  219.30    0.00    0.02   0.151   0.110   0.037   0.031   0.026   0.025   0.022   0.051   0.042   0.105   0.317
 2019 291   123  17.00  29.60  22.80 -99.000   4.097   3.380   0.685 -99.000 -99.000 -99.000   4.040   3.380   0.657   0.000   0.003  532.86  493.88  273.91  219.95    0.00    0.02   0.163   0.120   0.040   0.034   0.028   0.027   0.024   0.057   0.047   0.117   0.338
 2019 292   124  16.60  30.10  23.10 -99.000   4.031   3.308   0.687 -99.000 -99.000 -99.000   3.969   3.308   0.657   0.000   0.003  536.89  497.85  277.22  220.61    0.00    0.03   0.162   0.121   0.040   0.034   0.029   0.027   0.024   0.056   0.047   0.117   0.331
 2019 293   125  16.70  31.30  22.90 -99.000   4.103   3.359   0.714 -99.000 -99.000 -99.000   4.044   3.359   0.681   0.000   0.004  540.99  501.90  280.58  221.29    0.00    0.03   0.170   0.124   0.042   0.035   0.030   0.028   0.025   0.058   0.048   0.121   0.336
 2019 294   126  18.00  31.50  22.50 -99.000   4.420   3.604   0.785 -99.000 -99.000 -99.000   4.356   3.604   0.748   0.000   0.004  545.41  506.25  284.18  222.04    0.00    0.03   0.186   0.137   0.046   0.038   0.033   0.031   0.028   0.065   0.053   0.132   0.360
 2019 295   127  17.90  31.50  23.10 -99.000   4.415   3.590   0.800 -99.000 -99.000 -99.000   4.354   3.590   0.760   0.000   0.004  549.83  510.61  287.77  222.80    0.00    0.04   0.187   0.141   0.046   0.039   0.033   0.031   0.028   0.067   0.054   0.135   0.359
 2019 296   128  17.30  31.80  22.60 -99.000   4.267   3.447   0.789 -99.000 -99.000 -99.000   4.199   3.447   0.748   0.000   0.005  554.09  514.81  291.22  223.55    0.00    0.04   0.182   0.137   0.045   0.038   0.032   0.030   0.027   0.065   0.054   0.136   0.345
 2019 297   129  17.70  28.60  22.90 -99.000   4.229   3.399   0.798 -99.000 -99.000 -99.000   4.159   3.399   0.755   0.000   0.005  558.32  518.96  294.62  224.30    0.00    0.05   0.186   0.139   0.046   0.039   0.033   0.031   0.028   0.065   0.054   0.135   0.340
 2019 298   130  17.40  32.60  22.90 -99.000   4.339   3.475   0.835 -99.000 -99.000 -99.000   4.268   3.475   0.788   0.000   0.006  562.66  523.23  298.09  225.09    0.00    0.05   0.195   0.146   0.048   0.041   0.034   0.032   0.029   0.067   0.056   0.139   0.347
 2019 299   131  17.90  30.80  23.80 -99.000   4.409   3.509   0.869 -99.000 -99.000 -99.000   4.333   3.509   0.818   0.000   0.006  567.07  527.57  301.60  225.91    0.00    0.06   0.201   0.152   0.050   0.042   0.036   0.033   0.030   0.071   0.058   0.146   0.351
 2019 300   132  16.10  29.10  22.40 -99.000   3.857   3.047   0.779 -99.000 -99.000 -99.000   3.784   3.047   0.731   0.000   0.006  570.93  531.35  304.65  226.64    0.00    0.07   0.178   0.134   0.044   0.037   0.032   0.029   0.027   0.064   0.053   0.133   0.305
 2019 301   133  17.30  29.10  22.20 -99.000   4.140   3.251   0.854 -99.000 -99.000 -99.000   4.057   3.251   0.800   0.000   0.007  575.07  535.41  307.90  227.44    0.00    0.07   0.196   0.148   0.049   0.041   0.035   0.032   0.029   0.070   0.058   0.143   0.325
 2019 302   134  18.90  32.10  23.00 -99.000   4.698   3.679   0.990 -99.000 -99.000 -99.000   4.611   3.679   0.925   0.000   0.007  579.77  540.02  311.57  228.36    0.00    0.08   0.221   0.169   0.057   0.048   0.041   0.039   0.035   0.081   0.068   0.168   0.368
 2019 303   135  18.80  33.60  22.60 -99.000   4.732   3.677   1.023 -99.000 -99.000 -99.000   4.639   3.677   0.954   0.000   0.008  584.50  544.66  315.25  229.32    0.00    0.09   0.229   0.173   0.057   0.049   0.041   0.040   0.036   0.084   0.070   0.175   0.368
 2019 304   136  18.80  31.50  22.80 -99.000   4.638   3.582   1.030 -99.000 -99.000 -99.000   4.549   3.582   0.958   0.000   0.008  589.14  549.21  318.83  230.28    0.00    0.10   0.233   0.175   0.058   0.049   0.041   0.039   0.035   0.084   0.070   0.175   0.358
 2019 305   137  18.60  32.70  22.50 -99.000   4.642   3.558   1.059 -99.000 -99.000 -99.000   4.549   3.558   0.982   0.000   0.009  593.78  553.76  322.39  231.26    0.00    0.11   0.242   0.181   0.060   0.050   0.043   0.040   0.036   0.084   0.070   0.176   0.356
 2019 306   138  18.90  31.10  22.80 -99.000   4.650   3.528   1.092 -99.000 -99.000 -99.000   4.548   3.528   1.010   0.000   0.010  598.43  558.30  325.92  232.27    0.00    0.12   0.248   0.185   0.061   0.052   0.044   0.041   0.037   0.087   0.072   0.182   0.353
 2019 307   139  18.10  32.50  22.80 -99.000   4.521   3.399   1.092 -99.000 -99.000 -99.000   4.417   3.399   1.007   0.000   0.010  602.95  562.72  329.32  233.28    0.00    0.13   0.243   0.186   0.060   0.051   0.043   0.040   0.037   0.089   0.074   0.185   0.340
 2019 308   140  18.00  32.90  22.40 -99.000   4.502   3.352   1.125 -99.000 -99.000 -99.000   4.397   3.352   1.035   0.000   0.010  607.45  567.12  332.67  234.31    0.00    0.14   0.246   0.192   0.062   0.052   0.043   0.042   0.038   0.092   0.076   0.192   0.335
 2019 309   141  18.60  33.60  23.20 -99.000   4.713   3.463   1.223 -99.000 -99.000 -99.000   4.597   3.463   1.124   0.000   0.009  612.17  571.71  336.13  235.44    0.00    0.15   0.261   0.207   0.067   0.056   0.047   0.046   0.041   0.102   0.084   0.213   0.346
 2019 310   142  18.30  33.70  22.60 -99.000   4.624   3.352   1.244 -99.000 -99.000 -99.000   4.502   3.352   1.141   0.000   0.009  616.79  576.22  339.49  236.58    0.00    0.15   0.258   0.208   0.068   0.057   0.048   0.046   0.042   0.105   0.087   0.222   0.335
 2019 311   143  18.40  34.30  21.60 -99.000   4.646   3.331   1.289 -99.000 -99.000 -99.000   4.519   3.331   1.179   0.000   0.008  621.44  580.73  342.82  237.76    0.00    0.16   0.963   0.136   0.022   0.013   0.009   0.007   0.005   0.009   0.006   0.009   0.333
 2019 312   144  19.10  34.00  22.70 -99.000   4.843   3.434   1.384 -99.000 -99.000 -99.000   4.639   3.434   1.197   0.000   0.008  626.28  585.37  346.25  238.95    0.00    0.17   0.960   0.149   0.024   0.015   0.009   0.008   0.006   0.011   0.006   0.010   0.343
 2019 313   145  18.90  34.30  22.80 -99.000   4.808   3.374   1.408 -99.000 -99.000 -99.000   4.471   3.374   1.089   0.000   0.007  631.09  589.84  349.63  240.04    0.00    0.18   0.859   0.143   0.023   0.014   0.009   0.007   0.006   0.011   0.006   0.010   0.337
 2019 314   146  18.10  32.30  22.60 -99.000   4.504   3.121   1.356 -99.000 -99.000 -99.000   4.362   3.121   1.230   0.000   0.010  635.59  594.21  352.75  241.27    0.00    0.19   1.018   0.137   0.020   0.012   0.008   0.007   0.005   0.009   0.005   0.009   0.312
 2019 315   147  17.80  32.60  22.90 -99.000   4.474   3.067   1.384 -99.000 -99.000 -99.000   4.329   3.067   1.245   0.000   0.017  640.06  598.54  355.81  242.52    0.00    0.21   0.335   0.233   0.062   0.054   0.046   0.045   0.042   0.106   0.088   0.234   0.307
 2019 316   148  16.10  32.00  21.60 -99.000   3.986   2.695   1.266 -99.000 -99.000 -99.000   3.846   2.695   1.134   0.000   0.018  644.05  602.38  358.51  243.65    0.00    0.22   0.293   0.219   0.056   0.049   0.041   0.041   0.038   0.097   0.082   0.217   0.270
 2019 317   149  19.00  33.00  22.10 -99.000   4.768   3.189   1.552 -99.000 -99.000 -99.000   4.597   3.189   1.392   0.000   0.016  648.82  606.98  361.70  245.04    0.00    0.24   1.169   0.151   0.019   0.012   0.008   0.006   0.005   0.009   0.005   0.009   0.319
 2019 318   150  19.10  32.80  22.90 -99.000   4.809   3.169   1.616 -99.000 -99.000 -99.000   4.583   3.169   1.393   0.000   0.021  653.63  611.56  364.87  246.44    0.00    0.26   1.155   0.160   0.020   0.013   0.008   0.007   0.005   0.010   0.006   0.010   0.317
 2019 319   151  19.60  33.70  21.00 -99.000   4.913   3.195   1.698 -99.000 -99.000 -99.000   4.455   3.195   1.239   0.000   0.021  658.54  616.02  368.06  247.67    0.00    0.28   1.008   0.154   0.020   0.012   0.008   0.007   0.005   0.010   0.006   0.010   0.319
 2019 320   152  19.00  34.10  21.80 -99.000   4.805   3.080   1.699 -99.000 -99.000 -99.000   4.197   3.080   1.098   0.000   0.019  663.35  620.21  371.14  248.77    0.00    0.30   0.874   0.148   0.020   0.012   0.008   0.006   0.005   0.010   0.006   0.010   0.308
 2019 321   153  19.30  34.20  22.40 -99.000   4.904   3.097   1.781 -99.000 -99.000 -99.000   4.116   3.097   1.003   0.000   0.017  668.25  624.33  374.24  249.78    0.00    0.32   0.786   0.142   0.019   0.012   0.008   0.006   0.005   0.010   0.006   0.010   0.310
 2019 322   154  19.60  34.80  22.20 -99.000   5.002   3.122   1.854 -99.000 -99.000 -99.000   4.484   3.122   1.347   0.000   0.015  673.25  628.81  377.36  251.12    0.00    0.33   1.101   0.164   0.025   0.014   0.008   0.006   0.005   0.009   0.006   0.010   0.312
 2019 323   155  18.90  34.90  22.30 -99.000   4.864   2.993   1.849 -99.000 -99.000 -99.000   4.643   2.993   1.637   0.000   0.013  678.12  633.46  380.35  252.76    0.00    0.34   0.421   0.326   0.106   0.086   0.064   0.052   0.047   0.126   0.107   0.302   0.299
 2019 324   156  17.60  33.40  22.50 -99.000   4.463   2.699   1.744 -99.000 -99.000 -99.000   4.252   2.699   1.541   0.000   0.011  682.58  637.71  383.05  254.30    0.00    0.35   0.393   0.302   0.098   0.081   0.067   0.050   0.044   0.118   0.101   0.287   0.270
 2019 325   157  17.60  33.00  21.60 -99.000   4.420   2.634   1.763 -99.000 -99.000 -99.000   4.200   2.634   1.538   0.000   0.028  687.00  641.91  385.69  255.84    0.00    0.38   0.408   0.299   0.096   0.080   0.065   0.049   0.043   0.115   0.098   0.283   0.263
 2019 326   158  17.70  33.50  23.20 -99.000   4.524   2.665   1.838 -99.000 -99.000 -99.000   4.294   2.665   1.603   0.000   0.026  691.52  646.20  388.35  257.44    0.00    0.41   0.419   0.314   0.101   0.084   0.068   0.051   0.045   0.120   0.103   0.297   0.266
 2019 327   159  18.60  34.60  22.10 -99.000   4.767   2.775   1.973 -99.000 -99.000 -99.000   4.300   2.775   1.502   0.000   0.023  696.29  650.50  391.13  258.94    0.00    0.43   1.251   0.166   0.026   0.016   0.010   0.006   0.004   0.009   0.005   0.009   0.277
 2019 328   160  18.00  34.70  21.80 -99.000   4.602   2.646   1.935 -99.000 -99.000 -99.000   4.005   2.646   1.340   0.000   0.019  700.89  654.51  393.77  260.28    0.00    0.45   1.096   0.161   0.025   0.015   0.009   0.006   0.004   0.009   0.005   0.009   0.265
 2019 329   161  18.60  34.20  22.50 -99.000   4.748   2.703   2.023 -99.000 -99.000 -99.000   3.914   2.703   1.194   0.000   0.017  705.64  658.42  396.48  261.48    0.00    0.47   0.956   0.156   0.025   0.015   0.009   0.006   0.004   0.009   0.005   0.009   0.270
 2019 330   162  18.70  34.50  22.00 -99.000   4.767   2.681   2.062 -99.000 -99.000 -99.000   3.775   2.681   1.080   0.000   0.014  710.41  662.20  399.16  262.56    0.00    0.48   0.849   0.150   0.024   0.015   0.009   0.006   0.004   0.009   0.005   0.009   0.268
 2019 331   163  19.40  35.60  21.60 -99.000   5.121   2.841   2.255 -99.000 -99.000 -99.000   3.842   2.841   0.989   0.000   0.012  715.53  666.04  402.00  263.55    0.00    0.49   0.765   0.144   0.023   0.014   0.009   0.006   0.004   0.009   0.005   0.009   0.284
 2019 332   164  19.80  35.30  20.20 -99.000   5.089   2.791   2.273 -99.000 -99.000 -99.000   3.705   2.787   0.907   0.000   0.010  720.62  669.74  404.78  264.45    0.00    0.50   0.692   0.138   0.022   0.014   0.009   0.006   0.004   0.008   0.005   0.009   0.279
 2019 333   165  19.20  34.80  21.50 -99.000   4.883   2.653   2.211 -99.000 -99.000 -99.000   3.964   2.653   1.303   0.000   0.009  725.50  673.71  407.44  265.76    0.00    0.51   1.059   0.162   0.025   0.015   0.009   0.006   0.004   0.008   0.005   0.009   0.265
 2019 334   166  19.90  35.10  21.00 -99.000   5.129   2.750   2.355 -99.000 -99.000 -99.000   4.807   2.750   2.050   0.000   0.008  730.63  678.52  410.19  267.81    0.00    0.52   0.542   0.420   0.134   0.109   0.083   0.063   0.055   0.147   0.124   0.373   0.275
 2019 335   167  18.00  34.20  20.30 -99.000   4.545   2.421   2.104 -99.000 -99.000 -99.000   3.917   2.421   1.490   0.000   0.006  735.17  682.43  412.61  269.30    0.00    0.53   1.236   0.169   0.026   0.016   0.010   0.006   0.004   0.008   0.005   0.009   0.242
 2019 336   168  18.60  34.50  21.00 -99.000   4.727   2.485   2.221 -99.000 -99.000 -99.000   3.832   2.485   1.342   0.000   0.006  739.90  686.26  415.09  270.64    0.00    0.53   1.094   0.164   0.026   0.015   0.010   0.006   0.004   0.008   0.005   0.009   0.248
 2019 337   169  18.50  34.20  21.00 -99.000   4.681   2.435   2.225 -99.000 -99.000 -99.000   3.657   2.435   1.206   0.000   0.017  744.58  689.92  417.53  271.85    0.00    0.55   0.965   0.159   0.025   0.015   0.010   0.006   0.004   0.008   0.005   0.009   0.243
 2019 338   170  19.70  34.40  21.00 -99.000   4.989   2.574   2.397 -99.000 -99.000 -99.000   3.678   2.574   1.090   0.000   0.014  749.57  693.60  420.10  272.93    0.00    0.56   0.856   0.153   0.024   0.015   0.010   0.006   0.004   0.008   0.005   0.009   0.257
 2019 339   171  19.10  34.20  20.70 -99.000   4.813   2.460   2.335 -99.000 -99.000 -99.000   3.468   2.460   0.997   0.000   0.012  754.38  697.07  422.56  273.93    0.00    0.58   0.771   0.147   0.024   0.014   0.009   0.006   0.004   0.008   0.005   0.009   0.246
 2019 340   172  17.50  34.90  20.60 -99.000   4.434   2.249   2.168 -99.000 -99.000 -99.000   3.171   2.246   0.916   0.000   0.010  758.82  700.24  424.81  274.85    0.00    0.58   0.697   0.141   0.023   0.014   0.009   0.006   0.004   0.008   0.005   0.009   0.225
 2019 341   173  19.30  34.60  20.60 -99.000   4.872   2.444   2.404 -99.000 -99.000 -99.000   3.295   2.444   0.843   0.000   0.008  763.69  703.53  427.25  275.69    0.00    0.59   0.630   0.136   0.022   0.013   0.009   0.006   0.004   0.008   0.005   0.009   0.244
 2019 342   174  18.50  34.90  20.40 -99.000   4.674   2.331   2.325 -99.000 -99.000 -99.000   3.610   2.331   1.273   0.000   0.007  768.36  707.14  429.58  276.96    0.00    0.60   1.032   0.161   0.026   0.015   0.009   0.006   0.004   0.008   0.005   0.009   0.233
 2019 343   175  19.40  35.30  21.20 -99.000   5.070   2.507   2.541 -99.000 -99.000 -99.000   4.701   2.507   2.189   0.000   0.006  773.43  711.85  432.09  279.15    0.00    0.61   0.586   0.454   0.145   0.117   0.090   0.068   0.058   0.153   0.129   0.389   0.251
 2019 344   176  18.90  34.90  19.80 -99.000   4.797   2.360   2.418 -99.000 -99.000 -99.000   3.854   2.360   1.489   0.000   0.005  778.23  715.70  434.45  280.64    0.00    0.61   1.235   0.170   0.026   0.016   0.010   0.006   0.004   0.008   0.005   0.009   0.236
 2019 345   177  20.10  33.20  20.20 -99.000   5.016   2.452   2.545 -99.000 -99.000 -99.000   3.786   2.452   1.330   0.000   0.004  783.25  719.49  436.90  281.97    0.00    0.61   1.083   0.164   0.026   0.015   0.010   0.006   0.004   0.008   0.005   0.009   0.245
 2019 346   178  19.50  33.80  20.00 -99.000   4.882   2.358   2.505 -99.000 -99.000 -99.000   3.545   2.358   1.184   0.000   0.003  788.13  723.03  439.26  283.15    0.00    0.62   0.944   0.159   0.025   0.015   0.010   0.006   0.004   0.008   0.005   0.009   0.236
 2019 347   179  20.50  34.80  20.50 -99.000   5.197   2.491   2.687 -99.000 -99.000 -99.000   3.568   2.491   1.075   0.000   0.003  793.33  726.60  441.75  284.23    0.00    0.62   0.841   0.154   0.024   0.015   0.009   0.006   0.004   0.008   0.005   0.009   0.249
 2019 348   180  19.00  33.50  20.30 -99.000   4.741   2.249   2.474 -99.000 -99.000 -99.000   3.243   2.249   0.992   0.000   0.002  798.07  729.84  444.00  285.22    0.00    0.62   0.766   0.147   0.024   0.014   0.009   0.006   0.004   0.008   0.005   0.009   0.225
 2019 349   181  19.90  33.70  19.70 -99.000   4.951   2.334   2.601 -99.000 -99.000 -99.000   3.263   2.334   0.918   0.000   0.012  803.02  733.11  446.33  286.14    0.00    0.63   0.700   0.142   0.023   0.014   0.009   0.006   0.004   0.008   0.005   0.009   0.233
 2019 350   182  19.80  34.90  19.50 -99.000   4.977   2.329   2.630 -99.000 -99.000 -99.000   3.182   2.328   0.844   0.000   0.009  807.99  736.29  448.66  286.98    0.00    0.64   0.633   0.136   0.022   0.013   0.009   0.006   0.004   0.008   0.005   0.009   0.233
 2019 351   183  19.10  35.00  20.00 -99.000   4.818   2.239   2.561 -99.000 -99.000 -99.000   3.520   2.239   1.274   0.000   0.008  812.81  739.81  450.90  288.26    0.00    0.65   1.033   0.161   0.026   0.015   0.009   0.006   0.004   0.008   0.005   0.008   0.224
 2019 352   184  17.10  34.50  21.40 -99.000   4.383   2.021   2.345 -99.000 -99.000 -99.000   4.028   2.021   2.001   0.000   0.006  817.19  743.84  452.92  290.26    0.00    0.66   0.541   0.420   0.134   0.108   0.083   0.063   0.052   0.138   0.116   0.346   0.202
 2019 353   185  17.90  34.70  20.50 -99.000   4.560   2.086   2.457 -99.000 -99.000 -99.000   4.187   2.086   2.096   0.000   0.005  821.76  748.02  455.01  292.35    0.00    0.66   0.546   0.435   0.140   0.114   0.096   0.069   0.055   0.147   0.124   0.370   0.209
 2019 354   186  19.20  35.20  19.30 -99.000   4.915   2.230   2.664 -99.000 -99.000 -99.000   3.644   2.230   1.410   0.000   0.004  826.67  751.67  457.24  293.76    0.00    0.67   1.165   0.164   0.026   0.015   0.010   0.006   0.004   0.008   0.005   0.008   0.223
 2019 355   187  19.60  34.10  18.90 -99.000   4.892   2.209   2.665 -99.000 -99.000 -99.000   3.484   2.209   1.271   0.000   0.004  831.56  755.15  459.44  295.04    0.00    0.67   1.031   0.159   0.025   0.015   0.010   0.006   0.004   0.008   0.005   0.008   0.221
 2019 356   188  21.10  32.10  19.00 -99.000   5.151   2.313   2.817 -99.000 -99.000 -99.000   3.476   2.313   1.144   0.000   0.018  836.71  758.63  461.76  296.18    0.00    0.69   0.911   0.154   0.025   0.015   0.010   0.006   0.004   0.008   0.005   0.008   0.231
 2019 357   189  20.20  34.80  18.00 -99.000   5.032   2.244   2.769 -99.000 -99.000 -99.000   3.309   2.244   1.050   0.000   0.015  841.74  761.94  464.00  297.23    0.00    0.70   0.824   0.149   0.024   0.014   0.009   0.006   0.004   0.008   0.005   0.008   0.224
 2019 358   190  19.80  35.70  17.70 -99.000   5.122   2.275   2.825 -99.000 -99.000 -99.000   3.267   2.275   0.970   0.000   0.022  846.87  765.20  466.28  298.20    0.00    0.73   0.751   0.143   0.023   0.014   0.009   0.006   0.004   0.008   0.005   0.008   0.228
 2019 359   191  20.40  34.40  18.80 -99.000   5.079   2.240   2.819 -99.000 -99.000 -99.000   3.146   2.238   0.891   0.000   0.018  851.94  768.35  468.52  299.09    0.00    0.74   0.679   0.137   0.022   0.013   0.009   0.006   0.004   0.008   0.005   0.008   0.224
 2019 360   192  21.30  34.70  19.00 -99.000   5.322   2.328   2.972 -99.000 -99.000 -99.000   3.637   2.328   1.294   0.000   0.014  857.27  771.99  470.84  300.38    0.00    0.76   1.053   0.162   0.026   0.015   0.009   0.006   0.004   0.008   0.005   0.008   0.233
 2019 361   193  19.50  34.60  18.80 -99.000   4.916   2.142   2.755 -99.000 -99.000 -99.000   4.483   2.142   2.330   0.000   0.011  862.18  776.47  472.99  302.71    0.00    0.77   0.637   0.493   0.158   0.127   0.098   0.073   0.059   0.158   0.133   0.393   0.214
 2019 362   194  18.90  34.80  18.10 -99.000   4.740   2.063   2.659 -99.000 -99.000 -99.000   3.558   2.063   1.486   0.000   0.009  866.92  780.03  475.05  304.20    0.00    0.78   1.234   0.170   0.026   0.016   0.010   0.006   0.004   0.008   0.005   0.008   0.206
 2019 363   195  20.30  34.50  16.90 -99.000   5.022   2.174   2.827 -99.000 -99.000 -99.000   3.523   2.174   1.342   0.000   0.007  871.94  783.55  477.22  305.54    0.00    0.78   1.096   0.165   0.026   0.015   0.010   0.006   0.004   0.008   0.005   0.008   0.217
 2019 364   196  20.70  34.50  17.80 -99.000   5.144   2.220   2.904 -99.000 -99.000 -99.000   3.500   2.220   1.258   0.000   0.022  877.09  787.05  479.44  306.80    0.00    0.81   1.019   0.160   0.025   0.015   0.010   0.006   0.004   0.008   0.004   0.008   0.222
 2019 365   197  18.00  34.70  18.00 -99.000   4.487   1.930   2.538 -99.000 -99.000 -99.000   3.166   1.930   1.187   0.000   0.050  881.58  790.22  481.37  307.99    0.00    0.86   0.954   0.154   0.024   0.015   0.010   0.006   0.004   0.008   0.004   0.008   0.193
 2020 001   198  20.20  34.20  18.10 -99.000   5.005   2.146   2.838 -99.000 -99.000 -99.000   3.273   2.146   1.088   0.000   0.039  886.58  793.49  483.52  309.07    0.00    0.90   0.862   0.149   0.024   0.014   0.009   0.006   0.004   0.008   0.004   0.008   0.215
 2020 002   199  19.50  31.60  18.70 -99.000   4.715   2.006   2.685 -99.000 -99.000 -99.000   3.060   2.006   1.006   0.000   0.047  891.30  796.55  485.52  310.08    0.00    0.94   0.787   0.143   0.023   0.014   0.009   0.006   0.004   0.008   0.004   0.008   0.201
 2020 003   200  20.70  31.60  15.70 -99.000   4.890   2.073   2.788 -99.000 -99.000 -99.000   3.035   2.073   0.924   0.000   0.037  896.19  799.58  487.60  311.00    0.00    0.98   0.711   0.138   0.022   0.014   0.009   0.006   0.004   0.008   0.004   0.008   0.207
 2020 004   201  17.70  33.20  16.90 -99.000   4.287   1.828   2.440 -99.000 -99.000 -99.000   2.705   1.827   0.849   0.000   0.029  900.47  802.29  489.43  311.85    0.00    1.01   0.644   0.132   0.022   0.013   0.009   0.006   0.004   0.008   0.004   0.008   0.183
 2020 005   202  18.20  32.10  18.00 -99.000   4.387   1.864   2.503 -99.000 -99.000 -99.000   3.163   1.864   1.275   0.000   0.023  904.86  805.45  491.29  313.13    0.00    1.03   1.037   0.160   0.026   0.015   0.009   0.006   0.004   0.008   0.004   0.008   0.186
 2020 006   203  19.40  32.50  19.90 -99.000   4.819   2.045   2.755 -99.000 -99.000 -99.000   4.373   2.045   2.293   0.000   0.035  909.68  809.82  493.33  315.42    0.00    1.07   0.631   0.490   0.157   0.127   0.097   0.073   0.058   0.154   0.129   0.377   0.205
 2020 007   204  20.30  34.90  20.20 -99.000   5.170   2.185   2.964 -99.000 -99.000 -99.000   4.689   2.185   2.476   0.000   0.027  914.85  814.51  495.52  317.90    0.00    1.09   0.658   0.522   0.169   0.137   0.116   0.084   0.063   0.169   0.142   0.416   0.219
 2020 008   205  19.00  35.10  21.10 -99.000   4.896   2.060   2.820 -99.000 -99.000 -99.000   3.516   2.060   1.411   0.000   0.044  919.75  818.03  497.58  319.31    0.00    1.14   1.168   0.163   0.026   0.015   0.010   0.006   0.004   0.007   0.004   0.008   0.206
 2020 009   206  16.50  35.80  20.80 -99.000   4.400   1.836   2.547 -99.000 -99.000 -99.000   3.133   1.836   1.262   0.000   0.035  924.15  821.16  499.42  320.57    0.00    1.17   1.025   0.158   0.025   0.015   0.010   0.006   0.004   0.007   0.004   0.008   0.184
 2020 010   207  19.10  35.80  20.30 -99.000   5.066   2.107   2.941 -99.000 -99.000 -99.000   3.278   2.107   1.144   0.000   0.027  929.21  824.44  501.52  321.71    0.00    1.20   0.912   0.153   0.025   0.015   0.009   0.006   0.004   0.007   0.004   0.008   0.211
 2020 011   208  19.60  34.80  20.80 -99.000   4.977   2.057   2.900 -99.000 -99.000 -99.000   3.159   2.057   1.058   0.000   0.044  934.19  827.60  503.58  322.77    0.00    1.25   0.834   0.148   0.024   0.014   0.009   0.006   0.004   0.007   0.004   0.008   0.206
 2020 012   209  18.40  35.50  21.50 -99.000   4.829   1.989   2.824 -99.000 -99.000 -99.000   2.993   1.989   0.969   0.000   0.035  939.02  830.59  505.57  323.74    0.00    1.28   0.752   0.142   0.023   0.014   0.009   0.006   0.004   0.007   0.004   0.008   0.199
 2020 013   210  17.70  37.10  22.40 -99.000   5.081   2.087   2.977 -99.000 -99.000 -99.000   3.002   2.085   0.890   0.000   0.027  944.10  833.59  507.65  324.63    0.00    1.31   0.680   0.136   0.022   0.013   0.009   0.006   0.004   0.007   0.004   0.008   0.208
 2020 014   211  17.80  37.00  20.90 -99.000   5.028   2.057   2.954 -99.000 -99.000 -99.000   3.371   2.057   1.293   0.000   0.021  949.13  836.96  509.71  325.92    0.00    1.33   1.054   0.161   0.026   0.015   0.009   0.006   0.004   0.007   0.004   0.008   0.206
 2020 015   212  19.40  35.70  22.50 -99.000   5.233   2.133   3.080 -99.000 -99.000 -99.000   4.722   2.133   2.573   0.000   0.017  954.36  841.69  511.84  328.50    0.00    1.35   0.714   0.554   0.177   0.143   0.110   0.083   0.064   0.170   0.143   0.415   0.213
 2020 016   213  16.80  34.20  20.70 -99.000   4.262   1.724   2.520 -99.000 -99.000 -99.000   3.212   1.724   1.475   0.000   0.013  958.62  844.90  513.57  329.97    0.00    1.36   1.225   0.169   0.026   0.016   0.010   0.006   0.004   0.007   0.004   0.008   0.172
 2020 017   214  19.10  34.50  18.70 -99.000   4.783   1.915   2.848 -99.000 -99.000 -99.000   3.297   1.915   1.371   0.000   0.010  963.41  848.20  515.48  331.34    0.00    1.37   1.127   0.165   0.026   0.015   0.010   0.006   0.004   0.007   0.004   0.008   0.192
 2020 018   215  17.60  33.40  20.10 -99.000   4.397   1.746   2.635 -99.000 -99.000 -99.000   3.225   1.746   1.420   0.000   0.059  967.80  851.42  517.23  332.76    0.00    1.43   1.180   0.161   0.025   0.015   0.010   0.006   0.004   0.007   0.004   0.008   0.175
 2020 019   216  18.60  33.40  18.20 -99.000   4.597   1.791   2.788 -99.000 -99.000 -99.000   3.259   1.791   1.420   0.000   0.048  972.40  854.68  519.02  334.18    0.00    1.48   1.184   0.158   0.025   0.015   0.010   0.006   0.004   0.007   0.004   0.008   0.179
 2020 020   217  18.60  34.40  18.90 -99.000   4.659   1.785   2.858 -99.000 -99.000 -99.000   3.094   1.785   1.272   0.000   0.037  977.06  857.77  520.81  335.46    0.00    1.51   1.042   0.153   0.024   0.014   0.009   0.006   0.004   0.007   0.004   0.008   0.178
 2020 021   218  19.60  36.00  20.30 -99.000   5.258   2.003   3.238 -99.000 -99.000 -99.000   3.180   2.003   1.148   0.000   0.029  982.32  860.95  522.81  336.60    0.00    1.54   0.924   0.149   0.024   0.014   0.009   0.006   0.004   0.007   0.004   0.008   0.200
 2020 022   219  19.10  36.20  20.20 -99.000   5.170   1.935   3.215 -99.000 -99.000 -99.000   3.033   1.935   1.056   0.000   0.041  987.49  863.99  524.74  337.66    0.00    1.58   0.839   0.143   0.023   0.014   0.009   0.006   0.004   0.007   0.004   0.008   0.194
 2020 023   220  20.20  34.70  20.90 -99.000   5.123   1.885   3.218 -99.000 -99.000 -99.000   2.884   1.885   0.967   0.000   0.032  992.61  866.87  526.63  338.63    0.00    1.62   0.757   0.137   0.022   0.013   0.009   0.006   0.004   0.007   0.004   0.008   0.188
 2020 024   221  21.20  35.10  20.00 -99.000   5.383   1.961   3.397 -99.000 -99.000 -99.000   2.871   1.958   0.888   0.000   0.025  997.99  869.74  528.59  339.52    0.00    1.64   0.684   0.132   0.021   0.013   0.009   0.006   0.004   0.007   0.004   0.008   0.196
 2020 025   222  22.50  35.20  18.40 -99.000   5.676   2.025   3.624 -99.000 -99.000 -99.000   3.336   2.025   1.292   0.000   0.019   1004.    873.    531.    341.      0.      2.   1.056   0.159   0.025   0.014   0.008   0.006   0.004   0.007   0.004   0.008   0.203
 2020 026   223  24.00  35.00  15.60 -99.000   5.949   2.107   3.821 -99.000 -99.000 -99.000   5.290   2.107   3.168   0.000   0.015   1010.    878.    533.    344.      0.      2.   0.885   0.687   0.220   0.177   0.135   0.101   0.077   0.207   0.175   0.503   0.211
 2020 027   224  20.30  35.00  16.90 -99.000   5.062   1.784   3.262 -99.000 -99.000 -99.000   3.252   1.784   1.456   0.000   0.012   1015.    882.    535.    345.      0.      2.   1.207   0.168   0.026   0.016   0.010   0.006   0.004   0.007   0.004   0.007   0.178
 2020 028   225  21.30  34.70  18.30 -99.000   5.334   1.854   3.462 -99.000 -99.000 -99.000   3.169   1.854   1.306   0.000   0.009   1020.    885.    536.    347.      0.      2.   1.063   0.163   0.026   0.015   0.010   0.006   0.004   0.007   0.004   0.007   0.185
 2020 029   226  21.10  35.50  18.80 -99.000   5.456   1.880   3.560 -99.000 -99.000 -99.000   3.054   1.880   1.168   0.000   0.007   1025.    888.    538.    348.      0.      2.   0.931   0.159   0.025   0.015   0.010   0.006   0.004   0.007   0.004   0.007   0.188
 2020 030   227  21.70  36.00  18.40 -99.000   5.739   1.962   3.759 -99.000 -99.000 -99.000   3.113   1.962   1.146   0.000   0.006   1031.    891.    540.    349.      0.      2.   0.916   0.153   0.025   0.015   0.010   0.006   0.004   0.007   0.004   0.007   0.196
 2020 031   228  19.50  35.50  19.20 -99.000   5.054   1.715   3.321 -99.000 -99.000 -99.000   2.950   1.715   1.170   0.000   0.065   1036.    894.    542.    350.      0.      2.   0.947   0.147   0.024   0.014   0.009   0.006   0.004   0.007   0.004   0.007   0.172
 2020 032   229  22.40  35.50  18.60 -99.000   5.780   1.933   3.830 -99.000 -99.000 -99.000   3.099   1.933   1.115   0.000   0.051   1042.    897.    544.    351.      0.      2.   0.899   0.142   0.023   0.014   0.009   0.006   0.004   0.007   0.004   0.007   0.193
 2020 033   230  20.40  34.50  18.40 -99.000   5.080   1.669   3.394 -99.000 -99.000 -99.000   2.756   1.669   1.028   0.000   0.059   1047.    900.    546.    352.      0.      2.   0.818   0.136   0.022   0.013   0.009   0.006   0.004   0.007   0.004   0.007   0.167
 2020 034   231  20.50  34.20  19.30 -99.000   5.114   1.665   3.432 -99.000 -99.000 -99.000   2.662   1.665   0.952   0.000   0.045   1052.    902.    547.    353.      0.      2.   0.749   0.131   0.022   0.013   0.009   0.006   0.004   0.007   0.004   0.007   0.166
 2020 035   232  20.30  34.20  19.60 -99.000   5.070   1.623   3.432 -99.000 -99.000 -99.000   3.005   1.623   1.326   0.000   0.055   1057.    905.    549.    355.      0.      2.   1.090   0.159   0.026   0.015   0.009   0.006   0.004   0.007   0.004   0.007   0.162
 2020 036   233  18.30  33.90  20.30 -99.000   4.639   1.460   3.165 -99.000 -99.000 -99.000   4.080   1.460   2.557   0.000   0.062   1062.    910.    550.    357.      0.      2.   0.717   0.557   0.179   0.144   0.110   0.083   0.062   0.165   0.140   0.400   0.146
 2020 037   234  19.50  34.70  20.30 -99.000   4.970   1.552   3.404 -99.000 -99.000 -99.000   4.367   1.552   2.767   0.000   0.048   1067.    914.    552.    360.      0.      2.   0.742   0.598   0.193   0.157   0.132   0.095   0.068   0.183   0.155   0.444   0.155
 2020 038   235  22.50  34.90  19.60 -99.000   5.709   1.755   3.936 -99.000 -99.000 -99.000   3.267   1.755   1.475   0.000   0.036   1073.    917.    554.    361.      0.      2.   1.231   0.165   0.026   0.015   0.010   0.006   0.004   0.007   0.004   0.007   0.176
 2020 039   236  22.10  36.60  20.30 -99.000   6.155   1.874   4.263 -99.000 -99.000 -99.000   3.391   1.874   1.446   0.000   0.071   1079.    921.    555.    363.      0.      2.   1.206   0.162   0.025   0.015   0.010   0.006   0.004   0.007   0.004   0.007   0.187
 2020 040   237  17.10  35.70  21.10 -99.000   4.556   1.378   3.163 -99.000 -99.000 -99.000   2.759   1.378   1.320   0.000   0.060   1083.    923.    557.    364.      0.      2.   1.087   0.157   0.025   0.015   0.010   0.006   0.004   0.007   0.004   0.007   0.138
 2020 041   238  20.40  35.20  21.60 -99.000   5.294   1.589   3.690 -99.000 -99.000 -99.000   2.824   1.589   1.189   0.000   0.046   1089.    926.    558.    365.      0.      2.   0.960   0.153   0.024   0.014   0.009   0.006   0.004   0.007   0.004   0.007   0.159
 2020 042   239  19.70  35.40  22.30 -99.000   5.183   1.536   3.630 -99.000 -99.000 -99.000   2.732   1.536   1.161   0.000   0.035   1094.    929.    560.    367.      0.      2.   0.938   0.148   0.024   0.014   0.009   0.006   0.004   0.007   0.004   0.007   0.154
 2020 043   240  19.00  34.00  21.90 -99.000   4.833   1.418   3.399 -99.000 -99.000 -99.000   2.635   1.418   1.145   0.000   0.073   1099.    931.    561.    368.      0.      2.   0.927   0.143   0.023   0.014   0.009   0.006   0.004   0.007   0.004   0.007   0.142
 2020 044   241  20.00  34.90  20.60 -99.000   5.080   1.475   3.592 -99.000 -99.000 -99.000   2.574   1.475   1.044   0.000   0.055   1104.    934.    563.    369.      0.      2.   0.833   0.139   0.023   0.014   0.009   0.006   0.004   0.007   0.004   0.007   0.148
 2020 045   242  22.40  36.20  20.90 -99.000   6.083   1.731   4.337 -99.000 -99.000 -99.000   2.730   1.731   0.958   0.000   0.042   1110.    937.    565.    370.      0.      3.   0.752   0.134   0.022   0.013   0.009   0.006   0.004   0.007   0.004   0.007   0.173
 2020 046   243  21.80  36.00  20.70 -99.000   5.841   1.633   4.194 -99.000 -99.000 -99.000   2.988   1.633   1.323   0.000   0.032   1116.    940.    566.    371.      0.      3.   1.086   0.161   0.026   0.015   0.009   0.006   0.004   0.007   0.004   0.007   0.163
 2020 047   244  19.40  36.50  21.10 -99.000   5.429   1.488   3.928 -99.000 -99.000 -99.000   4.716   1.488   3.197   0.000   0.031   1121.    944.    568.    374.      0.      3.   0.902   0.700   0.224   0.181   0.138   0.105   0.076   0.204   0.172   0.494   0.149
 2020 048   245  19.20  36.60  22.10 -99.000   5.418   1.475   3.928 -99.000 -99.000 -99.000   2.964   1.475   1.465   0.000   0.024   1126.    947.    569.    376.      0.      3.   1.215   0.169   0.027   0.016   0.010   0.006   0.004   0.007   0.004   0.007   0.147
 2020 049   246  18.90  35.80  22.50 -99.000   5.111   1.380   3.718 -99.000 -99.000 -99.000   2.717   1.380   1.319   0.000   0.018   1132.    950.    571.    377.      0.      3.   1.075   0.165   0.026   0.015   0.010   0.006   0.004   0.007   0.004   0.007   0.138
 2020 050   247  20.50  36.10  22.30 -99.000   5.611   1.509   4.090 -99.000 -99.000 -99.000   2.712   1.509   1.189   0.000   0.014   1137.    953.    572.    378.      0.      3.   0.949   0.161   0.026   0.015   0.010   0.006   0.003   0.007   0.004   0.007   0.151
 2020 051   248  19.20  37.10  22.70 -99.000   5.542   1.474   4.054 -99.000 -99.000 -99.000   2.577   1.474   1.093   0.000   0.010   1143.    955.    574.    379.      0.      3.   0.859   0.157   0.025   0.015   0.010   0.006   0.003   0.007   0.004   0.007   0.147
 2020 052   249  18.30  37.40  23.00 -99.000   5.368   1.399   3.956 -99.000 -99.000 -99.000   2.443   1.399   1.014   0.000   0.030   1148.    958.    575.    380.      0.      3.   0.786   0.152   0.024   0.015   0.009   0.006   0.003   0.007   0.004   0.007   0.140
 2020 053   250  20.10  38.30  24.40 -99.000   6.215   1.592   4.607 -99.000 -99.000 -99.000   2.547   1.592   0.933   0.000   0.023   1154.    960.    577.    381.      0.      3.   0.710   0.147   0.024   0.014   0.009   0.006   0.003   0.007   0.004   0.007   0.159
 2020 054   251  20.20  38.10  24.10 -99.000   6.163   1.551   4.595 -99.000 -99.000 -99.000   2.453   1.551   0.885   0.000   0.017   1161.    963.    578.    382.      0.      3.   0.669   0.142   0.023   0.014   0.009   0.006   0.003   0.007   0.004   0.007   0.155
 2020 055   252  20.10  37.10  24.00 -99.000   5.826   1.442   4.368 -99.000 -99.000 -99.000   2.393   1.442   0.879   0.000   0.072   1166.    965.    580.    383.      0.      3.   0.669   0.137   0.023   0.014   0.009   0.006   0.003   0.007   0.004   0.007   0.144
 2020 056   253  18.90  36.20  22.50 -99.000   5.175   1.258   3.904 -99.000 -99.000 -99.000   2.164   1.257   0.847   0.000   0.061   1172.    967.    581.    384.      0.      3.   0.642   0.133   0.022   0.013   0.009   0.006   0.003   0.007   0.004   0.007   0.126
 2020 057   254  18.30  36.70  22.80 -99.000   5.148   1.238   3.898 -99.000 -99.000 -99.000   2.557   1.238   1.274   0.000   0.046   1177.    970.    582.    385.      0.      3.   1.037   0.160   0.026   0.015   0.009   0.006   0.003   0.007   0.004   0.007   0.124
 2020 058   255  20.00  36.70  23.30 -99.000   5.743   1.369   4.362 -99.000 -99.000 -99.000   4.932   1.369   3.529   0.000   0.034   1182.    975.    583.    389.      0.      3.   0.999   0.777   0.248   0.200   0.154   0.118   0.082   0.222   0.188   0.540   0.137
 2020 059   256  21.00  37.50  23.10 -99.000   6.251   1.480   4.757 -99.000 -99.000 -99.000   2.966   1.480   1.460   0.000   0.026   1189.    978.    585.    390.      0.      3.   1.211   0.170   0.026   0.016   0.010   0.006   0.003   0.007   0.004   0.007   0.148
 2020 060   257  21.30  38.50  25.80 -99.000   6.762   1.571   5.175 -99.000 -99.000 -99.000   2.916   1.571   1.326   0.000   0.019   1195.    981.    586.    391.      0.      3.   1.081   0.166   0.026   0.015   0.010   0.006   0.003   0.007   0.004   0.007   0.157
 2020 061   258  19.50  37.50  24.10 -99.000   5.813   1.324   4.475 -99.000 -99.000 -99.000   2.563   1.324   1.201   0.000   0.037   1201.    983.    588.    393.      0.      3.   0.962   0.161   0.025   0.015   0.010   0.006   0.003   0.007   0.004   0.007   0.132
 2020 062   259  19.40  36.40  25.10 -99.000   5.488   1.228   4.247 -99.000 -99.000 -99.000   2.425   1.228   1.169   0.000   0.028   1207.    986.    589.    394.      0.      3.   0.935   0.157   0.025   0.015   0.010   0.006   0.003   0.007   0.004   0.007   0.123
 2020 063   260  20.60  37.00  24.60 -99.000   5.999   1.327   4.660 -99.000 -99.000 -99.000   2.568   1.327   1.161   0.000   0.080   1213.    988.    590.    395.      0.      3.   0.932   0.153   0.024   0.015   0.009   0.006   0.003   0.007   0.004   0.007   0.133
 2020 064   261  22.80  37.70  23.90 -99.000   6.839   1.492   5.335 -99.000 -99.000 -99.000   2.632   1.492   1.075   0.000   0.064   1220.    991.    592.    396.      0.      3.   0.852   0.149   0.024   0.014   0.009   0.006   0.003   0.007   0.004   0.007   0.149
 2020 065   262  22.20  38.00  24.60 -99.000   6.778   1.447   5.317 -99.000 -99.000 -99.000   2.482   1.447   0.986   0.000   0.048   1226.    994.    593.    397.      0.      3.   0.768   0.144   0.023   0.014   0.009   0.006   0.003   0.007   0.004   0.007   0.145
 2020 066   263  19.80  37.00  24.10 -99.000   5.719   1.196   4.509 -99.000 -99.000 -99.000   2.137   1.194   0.907   0.000   0.036   1232.    996.    594.    398.      0.      3.   0.695   0.139   0.023   0.014   0.009   0.006   0.003   0.007   0.004   0.007   0.119
 2020 067   264  21.30  36.90  24.70 -99.000   6.136   1.248   4.877 -99.000 -99.000 -99.000   2.111   1.248   0.836   0.000   0.027   1238.    998.    596.    399.      0.      3.   0.629   0.135   0.022   0.013   0.009   0.006   0.003   0.007   0.004   0.007   0.125
 2020 068   265  21.20  36.90  24.30 -99.000   6.082   1.212   4.858 -99.000 -99.000 -99.000   2.501   1.212   1.269   0.000   0.020   1244.   1000.    597.    400.      0.      3.   1.031   0.162   0.026   0.015   0.009   0.006   0.003   0.007   0.004   0.007   0.121
 2020 069   266  22.50  38.20  24.50 -99.000   7.034   1.369   5.653 -99.000 -99.000 -99.000   5.961   1.369   4.576   0.000   0.015   1251.   1006.    598.    405.      0.      3.   1.300   1.010   0.322   0.261   0.201   0.157   0.105   0.285   0.242   0.694   0.137
 2020 070   267  21.20  38.10  23.20 -99.000   6.507   1.251   5.243 -99.000 -99.000 -99.000   2.692   1.251   1.430   0.000   0.011   1258.   1009.    600.    406.      0.      3.   1.183   0.168   0.026   0.016   0.010   0.006   0.003   0.007   0.004   0.007   0.125
 2020 071   268  19.90  36.90  25.20 -99.000   5.805   1.114   4.681 -99.000 -99.000 -99.000   2.415   1.114   1.293   0.000   0.008   1264.   1011.    601.    407.      0.      3.   1.050   0.165   0.026   0.015   0.010   0.006   0.003   0.007   0.004   0.007   0.111
 2020 072   269  19.60  35.80  25.40 -99.000   5.388   1.028   4.349 -99.000 -99.000 -99.000   2.218   1.028   1.184   0.000   0.006   1269.   1014.    602.    409.      0.      3.   0.945   0.161   0.025   0.015   0.010   0.006   0.003   0.007   0.004   0.007   0.103
 2020 073   270  20.60  34.70  23.90 -99.000   5.342   1.013   4.319 -99.000 -99.000 -99.000   2.148   1.013   1.098   0.000   0.037   1274.   1016.    603.    410.      0.      3.   0.863   0.158   0.025   0.015   0.010   0.006   0.003   0.007   0.004   0.007   0.101
 2020 074   271  19.20  35.00  22.80 -99.000   4.948   0.927   4.013 -99.000 -99.000 -99.000   1.964   0.927   1.010   0.000   0.027   1279.   1018.    604.    411.      0.      3.   0.780   0.154   0.025   0.015   0.010   0.006   0.003   0.007   0.004   0.007   0.093
 2020 075   272  19.90  37.10  21.60 -99.000   5.682   1.046   4.625 -99.000 -99.000 -99.000   1.998   1.046   0.931   0.000   0.020   1285.   1020.    605.    412.      0.      3.   0.705   0.151   0.024   0.015   0.009   0.006   0.003   0.007   0.004   0.007   0.105
 2020 076   273  19.80  37.40  23.20 -99.000   5.792   1.050   4.732 -99.000 -99.000 -99.000   1.924   1.049   0.860   0.000   0.015   1291.   1022.    606.    412.      0.      3.   0.638   0.147   0.024   0.014   0.009   0.006   0.003   0.007   0.004   0.007   0.105
 2020 077   274  21.70  37.60  24.30 -99.000   6.449   1.168   5.270 -99.000 -99.000 -99.000   1.974   1.168   0.795   0.000   0.011   1297.   1024.    607.    413.      0.      3.   0.578   0.144   0.023   0.014   0.009   0.006   0.003   0.007   0.004   0.007   0.117
 2020 078   275  20.40  37.20  25.40 -99.000   5.976   1.078   4.887 -99.000 -99.000 -99.000   1.821   1.078   0.735   0.000   0.008   1303.   1025.    608.    414.      0.      3.   0.523   0.140   0.023   0.014   0.009   0.006   0.003   0.007   0.004   0.007   0.108
 2020 079   276  20.70  37.80  24.80 -99.000   6.218   1.116   5.091 -99.000 -99.000 -99.000   2.345   1.116   1.223   0.000   0.006   1309.   1028.    609.    415.      0.      3.   0.983   0.163   0.026   0.015   0.009   0.006   0.003   0.007   0.004   0.007   0.112
 2020 080   277  22.00  36.20  24.30 -99.000   6.199   1.108   5.080 -99.000 -99.000 -99.000   5.218   1.108   4.106   0.000   0.005   1316.   1033.    610.    419.      0.      3.   1.174   0.908   0.302   0.239   0.179   0.136   0.092   0.250   0.213   0.613   0.111
 2020 081   278  20.80  38.00  25.10 -99.000   6.434   1.134   5.291 -99.000 -99.000 -99.000   5.414   1.134   4.261   0.000   0.020   1322.   1038.    611.    424.      0.      3.   1.150   0.941   0.308   0.256   0.204   0.145   0.099   0.269   0.229   0.660   0.113
 2020 082   279  20.70  36.50  24.50 -99.000   5.890   1.028   4.851 -99.000 -99.000 -99.000   2.368   1.028   1.326   0.000   0.015   1328.   1041.    612.    425.      0.      4.   1.086   0.162   0.026   0.016   0.010   0.006   0.003   0.007   0.004   0.007   0.103
 2020 083   280  20.20  36.20  25.10 -99.000   5.664   0.968   4.686 -99.000 -99.000 -99.000   2.439   0.968   1.461   0.000   0.011   1334.   1043.    613.    426.      0.      4.   1.217   0.166   0.026   0.016   0.010   0.006   0.003   0.007   0.004   0.007   0.097
 2020 084   281  21.20  33.50  23.90 -99.000   5.493   0.911   4.572 -99.000 -99.000 -99.000   4.605   0.911   3.610   0.000   0.084   1339.   1048.    614.    430.      0.      4.   1.066   0.783   0.249   0.201   0.164   0.117   0.081   0.220   0.188   0.542   0.091
 2020 085   282  20.10  34.90  24.90 -99.000   5.306   0.867   4.428 -99.000 -99.000 -99.000   2.428   0.867   1.498   0.000   0.064   1344.   1050.    615.    431.      0.      4.   1.255   0.166   0.026   0.015   0.009   0.006   0.003   0.006   0.004   0.007   0.087
 2020 086   283  21.90  35.30  25.00 -99.000   5.868   0.948   4.911 -99.000 -99.000 -99.000   2.359   0.948   1.363   0.000   0.047   1350.   1053.    616.    433.      0.      4.   1.124   0.164   0.026   0.015   0.009   0.006   0.003   0.006   0.004   0.007   0.095
 2020 087   284  21.40  37.20  25.70 -99.000   6.352   1.003   5.339 -99.000 -99.000 -99.000   2.286   1.003   1.240   0.000   0.043   1357.   1055.    617.    434.      0.      4.   1.004   0.160   0.025   0.015   0.009   0.006   0.003   0.006   0.004   0.007   0.100
 2020 088   285  21.30  36.80  25.90 -99.000   6.184   0.973   5.201 -99.000 -99.000 -99.000   2.131   0.973   1.127   0.000   0.032   1363.   1057.    618.    435.      0.      4.   0.895   0.157   0.025   0.015   0.009   0.006   0.003   0.006   0.004   0.007   0.097
 2020 089   286  20.60  37.40  26.00 -99.000   6.158   0.969   5.180 -99.000 -99.000 -99.000   2.027   0.969   1.034   0.000   0.023   1369.   1059.    619.    436.      0.      4.   0.807   0.154   0.024   0.014   0.009   0.006   0.003   0.006   0.004   0.007   0.097
 2020 090   287  20.60  36.60  26.90 -99.000   5.933   0.938   4.986 -99.000 -99.000 -99.000   1.908   0.938   0.953   0.000   0.017   1375.   1061.    620.    437.      0.      4.   0.730   0.150   0.024   0.014   0.009   0.006   0.003   0.006   0.004   0.007   0.094
 2020 091   288  19.90  35.90  25.70 -99.000   5.471   0.860   4.602 -99.000 -99.000 -99.000   4.570   0.860   3.698   0.000   0.013   1380.   1065.    621.    441.      0.      4.   0.931   0.850   0.278   0.219   0.169   0.126   0.088   0.239   0.205   0.593   0.086
 2020 092   289  20.40  34.70  25.20 -99.000   5.403   0.834   4.561 -99.000 -99.000 -99.000   4.510   0.834   3.590   0.000   0.086   1386.   1070.    622.    444.      0.      4.   1.039   0.798   0.256   0.209   0.164   0.119   0.078   0.213   0.183   0.531   0.083
 2020 093   290  23.70  36.30  25.00 -99.000   6.716   1.012   5.693 -99.000 -99.000 -99.000   5.599   1.012   4.524   0.000   0.063   1392.   1076.    623.    449.      0.      4.   1.244   1.001   0.325   0.266   0.223   0.163   0.101   0.276   0.237   0.688   0.101
 2020 094   291  20.30  36.90  25.60 -99.000   5.940   0.881   5.049 -99.000 -99.000 -99.000   2.265   0.881   1.329   0.000   0.055   1398.   1078.    623.    450.      0.      4.   1.092   0.161   0.026   0.015   0.010   0.006   0.003   0.006   0.004   0.007   0.088
 2020 095   292  21.80  32.50  25.30 -99.000   5.592   0.817   4.766 -99.000 -99.000 -99.000   2.064   0.817   1.207   0.000   0.040   1404.   1080.    624.    452.      0.      4.   0.973   0.158   0.025   0.015   0.010   0.006   0.003   0.006   0.004   0.007   0.082
 2020 096   293  23.40  36.10  25.20 -99.000   6.514   0.945   5.560 -99.000 -99.000 -99.000   2.078   0.945   1.104   0.000   0.030   1411.   1082.    625.    453.      0.      4.   0.874   0.155   0.025   0.015   0.010   0.006   0.003   0.006   0.004   0.007   0.095
[...]
 2020 136   333  19.10  34.60  24.60 -99.000   4.982   0.578   4.399 -99.000 -99.000 -99.000   4.090   0.578   3.441   0.000   0.072   1628.   1203.    653.    544.      0.      6.   0.961   0.760   0.248   0.203   0.163   0.150   0.138   0.213   0.151   0.454   0.058
 2020 137   334  19.20  34.90  25.10 -99.000   5.084   0.583   4.496 -99.000 -99.000 -99.000   4.171   0.583   3.489   0.000   0.099   1634.   1208.    653.    548.      0.      7.   1.015   0.763   0.252   0.207   0.168   0.150   0.134   0.209   0.148   0.445   0.058
 2020 138   335  19.40  36.00  25.80 -99.000   5.435   0.621   4.808 -99.000 -99.000 -99.000   4.459   0.621   3.753   0.000   0.084   1639.   1212.    654.    551.      0.      7.   1.045   0.823   0.268   0.224   0.188   0.172   0.147   0.230   0.163   0.493   0.062
 2020 139   336  17.40  35.00  25.80 -99.000   4.604   0.526   4.072 -99.000 -99.000 -99.000   2.061   0.526   1.474   0.000   0.061   1644.   1214.    654.    553.      0.      7.   1.228   0.165   0.026   0.016   0.010   0.008   0.006   0.006   0.003   0.006   0.053
 2020 140   337  18.70  33.70  25.00 -99.000   4.861   0.556   4.298 -99.000 -99.000 -99.000   2.090   0.556   1.435   0.000   0.099   1648.   1216.    655.    554.      0.      7.   1.191   0.163   0.026   0.016   0.010   0.008   0.006   0.006   0.003   0.006   0.056
 2020 141   338  18.20  33.10  25.70 -99.000   4.713   0.539   4.168 -99.000 -99.000 -99.000   2.158   0.539   1.537   0.000   0.082   1653.   1218.    656.    556.      0.      7.   1.287   0.168   0.026   0.016   0.010   0.008   0.006   0.006   0.003   0.006   0.054
 2020 142   339  17.90  34.20  24.50 -99.000   4.682   0.536   4.140 -99.000 -99.000 -99.000   3.838   0.536   3.205   0.000   0.097   1658.   1222.    656.    559.      0.      7.   0.922   0.687   0.223   0.186   0.155   0.145   0.127   0.247   0.132   0.382   0.054
 2020 143   340  17.40  35.00  24.60 -99.000   4.595   0.527   4.062 -99.000 -99.000 -99.000   3.767   0.527   3.151   0.000   0.088   1662.   1226.    657.    562.      0.      7.   0.867   0.662   0.218   0.183   0.156   0.145   0.131   0.297   0.140   0.353   0.053
 2020 144   341  19.10  35.10  25.70 -99.000   5.110   0.587   4.517 -99.000 -99.000 -99.000   4.189   0.587   3.507   0.000   0.095   1668.   1230.    657.    566.      0.      7.   0.965   0.714   0.242   0.203   0.171   0.161   0.146   0.333   0.180   0.392   0.059
 2020 145   342  18.00  31.70  24.60 -99.000   4.594   0.527   4.061 -99.000 -99.000 -99.000   3.765   0.527   3.147   0.000   0.091   1672.   1234.    658.    569.      0.      7.   0.856   0.642   0.215   0.180   0.153   0.144   0.130   0.298   0.182   0.347   0.053
 2020 146   343  18.20  32.00  24.30 -99.000   4.652   0.536   4.111 -99.000 -99.000 -99.000   3.814   0.536   3.184   0.000   0.094   1677.   1238.    658.    572.      0.      7.   0.832   0.641   0.217   0.183   0.155   0.148   0.134   0.306   0.210   0.357   0.054
 2020 147   344  18.80  35.00  25.70 -99.000   4.984   0.572   4.408 -99.000 -99.000 -99.000   4.085   0.572   3.422   0.000   0.092   1682.   1242.    659.    575.      0.      7.   0.876   0.684   0.225   0.193   0.164   0.158   0.144   0.335   0.250   0.393   0.057
 2020 148   345  17.50  33.90  25.00 -99.000   4.561   0.519   4.036 -99.000 -99.000 -99.000   3.736   0.519   3.123   0.000   0.093   1686.   1245.    659.    579.      0.      8.   0.782   0.622   0.205   0.174   0.147   0.143   0.131   0.310   0.244   0.366   0.052
 2020 149   346  20.10  32.30  24.40 -99.000   5.124   0.581   4.537 -99.000 -99.000 -99.000   4.196   0.581   3.523   0.000   0.093   1691.   1250.    660.    582.      0.      8.   0.903   0.705   0.232   0.196   0.167   0.158   0.144   0.342   0.274   0.401   0.058
 2020 150   347  19.30  32.60  24.70 -99.000   4.976   0.564   4.407 -99.000 -99.000 -99.000   4.075   0.564   3.417   0.000   0.093   1696.   1254.    661.    585.      0.      8.   0.898   0.686   0.225   0.189   0.161   0.150   0.136   0.323   0.260   0.389   0.056
 2020 151   348  18.20  33.50  24.90 -99.000   4.742   0.537   4.201 -99.000 -99.000 -99.000   3.883   0.537   3.253   0.000   0.093   1701.   1258.    661.    589.      0.      8.   0.843   0.632   0.214   0.180   0.153   0.145   0.131   0.303   0.251   0.401   0.054
 2020 152   349  18.90  34.00  26.00 -99.000   4.975   0.564   4.406 -99.000 -99.000 -99.000   4.072   0.564   3.415   0.000   0.094   1706.   1262.    662.    592.      0.      8.   0.866   0.660   0.219   0.186   0.158   0.152   0.138   0.320   0.265   0.449   0.056
 2020 153   350  16.70  28.70  23.90 -99.000   4.096   0.468   3.623 -99.000 -99.000 -99.000   3.353   0.468   2.792   0.000   0.093   1710.   1265.    662.    595.      0.      8.   0.694   0.530   0.175   0.148   0.126   0.119   0.108   0.255   0.211   0.424   0.047
 2020 154   351  20.00  31.40  24.70 -99.000   5.094   0.588   4.500 -99.000 -99.000 -99.000   4.171   0.588   3.489   0.000   0.094   1715.   1269.    663.    598.      0.      8.   0.869   0.645   0.217   0.182   0.155   0.144   0.130   0.303   0.253   0.591   0.059
 2020 155   352  19.70  32.30  25.80 -99.000   5.101   0.591   4.504 -99.000 -99.000 -99.000   4.177   0.591   3.493   0.000   0.094   1720.   1273.    663.    602.      0.      8.   0.867   0.635   0.215   0.181   0.153   0.145   0.131   0.302   0.251   0.612   0.059
 2020 156   353  18.50  33.00  23.40 -99.000   4.742   0.554   4.183 -99.000 -99.000 -99.000   3.884   0.554   3.236   0.000   0.094   1725.   1277.    664.    605.      0.      8.   0.782   0.595   0.195   0.164   0.138   0.132   0.119   0.285   0.236   0.590   0.055
 2020 157   354  19.70  34.00  24.30 -99.000   5.116   0.599   4.511 -99.000 -99.000 -99.000   4.190   0.599   3.523   0.000   0.068   1730.   1281.    664.    609.      0.      8.   0.834   0.646   0.211   0.178   0.150   0.144   0.131   0.315   0.261   0.654   0.060
 2020 158   355  16.60  32.10  23.20 -99.000   4.192   0.486   3.701 -99.000 -99.000 -99.000   3.431   0.486   2.844   0.000   0.101   1734.   1285.    665.    612.      0.      8.   0.685   0.519   0.168   0.142   0.120   0.115   0.105   0.253   0.210   0.528   0.049
 2020 159   356  19.50  32.80  23.20 -99.000   4.970   0.582   4.383 -99.000 -99.000 -99.000   4.069   0.582   3.403   0.000   0.085   1739.   1289.    665.    615.      0.      9.   0.829   0.621   0.198   0.168   0.142   0.137   0.125   0.302   0.250   0.631   0.058
 2020 160   357  17.90  32.20  23.60 -99.000   4.536   0.533   3.997 -99.000 -99.000 -99.000   3.714   0.533   3.119   0.000   0.061   1744.   1293.    666.    618.      0.      9.   0.765   0.584   0.190   0.160   0.136   0.127   0.113   0.268   0.221   0.555   0.053
 2020 161   358  18.40  33.00  23.10 -99.000   4.710   0.549   4.155 -99.000 -99.000 -99.000   3.855   0.549   3.205   0.000   0.101   1749.   1297.    667.    621.      0.      9.   0.780   0.603   0.195   0.164   0.138   0.130   0.116   0.278   0.229   0.573   0.055
 2020 162   359  18.30  33.00  23.40 -99.000   4.675   0.546   4.123 -99.000 -99.000 -99.000   3.825   0.546   3.207   0.000   0.073   1753.   1300.    667.    624.      0.      9.   0.764   0.599   0.193   0.163   0.137   0.131   0.117   0.283   0.233   0.586   0.055
 2020 163   360  17.00  30.80  22.30 -99.000   4.208   0.492   3.710 -99.000 -99.000 -99.000   3.443   0.492   2.848   0.000   0.102   1758.   1304.    668.    627.      0.      9.   0.664   0.529   0.172   0.145   0.122   0.117   0.106   0.257   0.209   0.528   0.049
 2020 164   361  18.10  31.20  23.30 -99.000   4.523   0.532   3.986 -99.000 -99.000 -99.000   2.026   0.532   1.420   0.000   0.074   1762.   1306.    668.    629.      0.      9.   1.162   0.164   0.026   0.016   0.010   0.008   0.006   0.011   0.006   0.010   0.053
 2020 165   362  17.30  31.50  23.10 -99.000   4.318   0.516   3.797 -99.000 -99.000 -99.000   3.535   0.516   2.966   0.000   0.053   1766.   1309.    669.    632.      0.      9.   0.684   0.556   0.183   0.154   0.130   0.123   0.111   0.269   0.221   0.535   0.052
 2020 166   363  17.80  32.20  23.60 -99.000   4.533   0.548   3.981 -99.000 -99.000 -99.000   3.712   0.548   3.064   0.000   0.101   1771.   1313.    669.    635.      0.      9.   0.740   0.571   0.185   0.155   0.130   0.124   0.112   0.272   0.225   0.550   0.055
 2020 167   364  17.60  33.40  24.90 -99.000   4.560   0.551   4.003 -99.000 -99.000 -99.000   3.734   0.551   3.110   0.000   0.072   1775.   1317.    670.    638.      0.      9.   0.730   0.581   0.186   0.157   0.132   0.127   0.115   0.279   0.231   0.572   0.055
 2020 168   365  19.20  32.90  24.20 -99.000   4.917   0.596   4.316 -99.000 -99.000 -99.000   4.027   0.596   3.370   0.000   0.061   1780.   1321.    670.    641.      0.      9.   0.771   0.627   0.202   0.171   0.143   0.138   0.125   0.305   0.253   0.633   0.060
 2020 169   366  15.80  33.80  23.20 -99.000   4.051   0.483   3.563 -99.000 -99.000 -99.000   2.055   0.483   1.491   0.000   0.081   1784.   1323.    671.    643.      0.      9.   1.232   0.166   0.026   0.016   0.010   0.008   0.006   0.011   0.006   0.010   0.048
 2020 170   367  18.10  31.10  23.00 -99.000   4.512   0.532   3.975 -99.000 -99.000 -99.000   3.691   0.532   3.069   0.000   0.089   1789.   1327.    671.    646.      0.      9.   0.749   0.565   0.180   0.151   0.127   0.122   0.111   0.272   0.225   0.567   0.053
 2020 171   368  18.90  32.10  23.90 -99.000   4.807   0.568   4.233 -99.000 -99.000 -99.000   3.932   0.568   3.270   0.000   0.093   1794.   1331.    672.    649.      0.     10.   0.817   0.604   0.193   0.157   0.132   0.128   0.117   0.286   0.237   0.598   0.057
 2020 172   369  19.10  32.40  23.90 -99.000   4.865   0.576   4.283 -99.000 -99.000 -99.000   2.203   0.576   1.533   0.000   0.094   1799.   1333.    673.    651.      0.     10.   1.272   0.168   0.026   0.015   0.010   0.008   0.006   0.011   0.006   0.010   0.058
 2020 173   370  15.90  30.80  24.50 -99.000   3.987   0.469   3.513 -99.000 -99.000 -99.000   2.027   0.469   1.481   0.000   0.077   1803.   1335.    673.    652.      0.     10.   1.222   0.166   0.026   0.015   0.010   0.008   0.006   0.011   0.006   0.010   0.047
 2020 174   371  18.50  30.60  22.60 -99.000   4.571   0.540   4.025 -99.000 -99.000 -99.000   3.737   0.540   3.097   0.000   0.100   1807.   1338.    674.    655.      0.     10.   0.772   0.576   0.186   0.151   0.124   0.120   0.110   0.269   0.224   0.566   0.054
 2020 175   372  19.10  31.50  23.60 -99.000   4.826   0.573   4.246 -99.000 -99.000 -99.000   3.945   0.573   3.283   0.000   0.089   1812.   1342.    674.    658.      0.     10.   0.825   0.616   0.199   0.163   0.130   0.125   0.115   0.281   0.234   0.595   0.057
 2020 176   373  17.00  30.60  23.00 -99.000   4.221   0.506   3.709 -99.000 -99.000 -99.000   3.452   0.506   2.863   0.000   0.083   1816.   1346.    675.    661.      0.     10.   0.716   0.537   0.174   0.144   0.115   0.109   0.100   0.245   0.204   0.520   0.051
 2020 177   374  18.80  32.10  22.40 -99.000   4.729   0.571   4.151 -99.000 -99.000 -99.000   3.867   0.571   3.198   0.000   0.097   1821.   1350.    675.    665.      0.     10.   0.792   0.603   0.194   0.162   0.129   0.121   0.111   0.274   0.229   0.583   0.057
 2020 178   375  17.00  29.40  23.60 -99.000   4.180   0.511   3.663 -99.000 -99.000 -99.000   2.075   0.511   1.493   0.000   0.070   1825.   1352.    676.    666.      0.     10.   1.235   0.167   0.026   0.016   0.010   0.008   0.006   0.010   0.006   0.010   0.051
 2020 179   376  17.40  30.70  24.00 -99.000   4.339   0.534   3.799 -99.000 -99.000 -99.000   1.992   0.534   1.379   0.000   0.078   1830.   1354.    676.    667.      0.     10.   1.123   0.165   0.026   0.016   0.010   0.007   0.006   0.010   0.006   0.010   0.053
 2020 180   377  17.80  30.00  23.20 -99.000   4.369   0.541   3.823 -99.000 -99.000 -99.000   3.575   0.541   2.978   0.000   0.056   1834.   1357.    677.    670.      0.     10.   0.715   0.572   0.186   0.153   0.123   0.112   0.103   0.255   0.213   0.546   0.054
 2020 181   378  15.10  28.90  23.20 -99.000   3.700   0.459   3.235 -99.000 -99.000 -99.000   3.027   0.459   2.466   0.000   0.102   1838.   1360.    677.    673.      0.     10.   0.650   0.467   0.153   0.125   0.101   0.090   0.081   0.201   0.168   0.431   0.046
 2020 182   379  16.00  31.50  23.00 -99.000   4.021   0.503   3.513 -99.000 -99.000 -99.000   3.292   0.503   2.705   0.000   0.083   1842.   1364.    678.    676.      0.     10.   0.711   0.512   0.169   0.140   0.114   0.103   0.089   0.217   0.182   0.468   0.050
 2020 183   380  17.50  32.60  23.70 -99.000   4.474   0.563   3.907 -99.000 -99.000 -99.000   3.664   0.563   2.999   0.000   0.101   1846.   1367.    678.    679.      0.     11.   0.755   0.569   0.188   0.158   0.131   0.122   0.103   0.243   0.204   0.525   0.056
 2020 184   381  17.60  32.60  24.50 -99.000   4.508   0.567   3.936 -99.000 -99.000 -99.000   3.690   0.567   3.033   0.000   0.091   1851.   1371.    679.    682.      0.     11.   0.742   0.575   0.187   0.158   0.133   0.127   0.111   0.250   0.210   0.541   0.057
 2020 185   382  16.40  30.20  23.10 -99.000   4.051   0.509   3.536 -99.000 -99.000 -99.000   3.315   0.509   2.712   0.000   0.093   1855.   1374.    679.    684.      0.     11.   0.672   0.518   0.170   0.143   0.121   0.114   0.102   0.227   0.182   0.463   0.051
 2020 186   383  16.30  27.90  22.60 -99.000   3.933   0.495   3.432 -99.000 -99.000 -99.000   3.219   0.495   2.628   0.000   0.095   1859.   1378.    680.    687.      0.     11.   0.669   0.495   0.167   0.140   0.119   0.111   0.100   0.223   0.175   0.427   0.050
 2020 187   384  16.20  30.60  23.00 -99.000   4.036   0.510   3.521 -99.000 -99.000 -99.000   3.303   0.510   2.697   0.000   0.096   1863.   1381.    680.    690.      0.     11.   0.681   0.498   0.169   0.143   0.121   0.115   0.104   0.234   0.189   0.444   0.051
 2020 188   385  17.70  31.30  23.30 -99.000   4.445   0.559   3.879 -99.000 -99.000 -99.000   3.637   0.559   2.981   0.000   0.096   1867.   1385.    681.    693.      0.     11.   0.725   0.550   0.183   0.156   0.132   0.127   0.116   0.266   0.217   0.510   0.056
 2020 189   386  17.40  30.10  23.10 -99.000   4.297   0.543   3.749 -99.000 -99.000 -99.000   3.516   0.543   2.877   0.000   0.096   1871.   1388.    681.    695.      0.     11.   0.705   0.529   0.175   0.147   0.125   0.120   0.110   0.256   0.211   0.501   0.054
 2020 190   387  17.50  30.90  23.10 -99.000   4.367   0.553   3.809 -99.000 -99.000 -99.000   3.574   0.553   2.924   0.000   0.097   1876.   1392.    682.    698.      0.     11.   0.712   0.542   0.175   0.147   0.123   0.119   0.108   0.260   0.215   0.524   0.055
 2020 191   388  16.80  30.80  23.20 -99.000   4.180   0.528   3.647 -99.000 -99.000 -99.000   3.420   0.528   2.823   0.000   0.069   1880.   1395.    683.    701.      0.     11.   0.664   0.522   0.169   0.143   0.120   0.116   0.104   0.255   0.210   0.520   0.053
 2020 192   389  17.20  27.20  22.40 -99.000   4.086   0.514   3.566 -99.000 -99.000 -99.000   3.342   0.514   2.768   0.000   0.059   1884.   1398.    683.    704.      0.     11.   0.659   0.511   0.167   0.141   0.119   0.113   0.102   0.247   0.204   0.506   0.051
 2020 193   390  16.40  28.60  22.50 -99.000   3.983   0.504   3.474 -99.000 -99.000 -99.000   3.258   0.504   2.655   0.000   0.100   1888.   1402.    684.    707.      0.     11.   0.632   0.482   0.163   0.138   0.117   0.111   0.100   0.233   0.194   0.485   0.050
 2020 194   391  16.80  29.70  23.40 -99.000   4.144   0.526   3.613 -99.000 -99.000 -99.000   3.390   0.526   2.779   0.000   0.085   1892.   1405.    684.    709.      0.     12.   0.660   0.512   0.168   0.141   0.119   0.113   0.103   0.246   0.204   0.512   0.053
 2020 195   392  16.40  30.10  23.40 -99.000   4.055   0.512   3.537 -99.000 -99.000 -99.000   3.316   0.512   2.742   0.000   0.061   1896.   1408.    685.    712.      0.     12.   0.635   0.509   0.166   0.139   0.117   0.112   0.101   0.247   0.204   0.512   0.051
 2020 196   393  16.40  27.80  23.10 -99.000   3.940   0.495   3.438 -99.000 -99.000 -99.000   3.220   0.495   2.681   0.000   0.044   1900.   1412.    685.    715.      0.     12.   0.655   0.498   0.163   0.135   0.112   0.107   0.096   0.235   0.194   0.487   0.050
 2020 197   394  16.20  29.00  22.60 -99.000   3.954   0.499   3.449 -99.000 -99.000 -99.000   3.232   0.499   2.631   0.000   0.102   1904.   1415.    686.    717.      0.     12.   0.648   0.489   0.158   0.131   0.109   0.105   0.094   0.230   0.189   0.477   0.050
 2020 198   395  15.30  30.10  22.90 -99.000   3.773   0.477   3.291 -99.000 -99.000 -99.000   3.085   0.477   2.534   0.000   0.073   1908.   1418.    686.    720.      0.     12.   0.638   0.468   0.152   0.126   0.104   0.100   0.090   0.219   0.181   0.455   0.048
 2020 199   396  15.60  29.10  22.80 -99.000   3.816   0.479   3.332 -99.000 -99.000 -99.000   3.119   0.479   2.535   0.000   0.105   1912.   1421.    687.    723.      0.     12.   0.648   0.468   0.153   0.126   0.105   0.100   0.090   0.217   0.178   0.450   0.048
 2020 200   397  17.40  30.10  23.00 -99.000   4.301   0.541   3.755 -99.000 -99.000 -99.000   3.515   0.541   2.886   0.000   0.088   1916.   1425.    687.    725.      0.     12.   0.727   0.544   0.178   0.149   0.125   0.116   0.103   0.244   0.200   0.500   0.054
 2020 201   398  15.30  29.30  23.30 -99.000   3.764   0.474   3.285 -99.000 -99.000 -99.000   3.076   0.474   2.500   0.000   0.102   1920.   1428.    688.    728.      0.     12.   0.630   0.471   0.157   0.132   0.112   0.103   0.091   0.209   0.171   0.422   0.047
 2020 202   399  16.00  29.20  22.40 -99.000   3.907   0.490   3.412 -99.000 -99.000 -99.000   3.192   0.490   2.609   0.000   0.093   1924.   1431.    688.    731.      0.     12.   0.629   0.481   0.162   0.138   0.117   0.112   0.100   0.227   0.186   0.457   0.049
 2020 203   400  15.80  29.70  23.20 -99.000   3.888   0.487   3.397 -99.000 -99.000 -99.000   3.177   0.487   2.604   0.000   0.086   1927.   1434.    689.    733.      0.     12.   0.620   0.482   0.158   0.133   0.112   0.107   0.097   0.231   0.190   0.475   0.049
 2020 204   401  17.00  31.60  22.50 -99.000   4.241   0.532   3.704 -99.000 -99.000 -99.000   3.464   0.532   2.871   0.000   0.062   1932.   1437.    689.    736.      0.     12.   0.697   0.529   0.172   0.145   0.122   0.117   0.106   0.253   0.209   0.522   0.053
 2020 205   402  18.00  28.30  22.20 -99.000   4.336   0.543   3.787 -99.000 -99.000 -99.000   3.541   0.543   2.893   0.000   0.105   1936.   1441.    690.    739.      0.     12.   0.705   0.535   0.173   0.145   0.121   0.116   0.105   0.256   0.210   0.527   0.054
 2020 206   403  16.50  29.20  23.10 -99.000   4.031   0.502   3.522 -99.000 -99.000 -99.000   3.291   0.502   2.704   0.000   0.084   1940.   1444.    690.    742.      0.     13.   0.643   0.500   0.162   0.136   0.113   0.109   0.099   0.243   0.199   0.500   0.050
 2020 207   404  14.90  28.00  23.50 -99.000   3.600   0.448   3.147 -99.000 -99.000 -99.000   2.026   0.448   1.475   0.000   0.104   1944.   1446.    691.    743.      0.     13.   1.217   0.165   0.026   0.016   0.010   0.008   0.006   0.011   0.006   0.010   0.045
 2020 208   405  16.10  30.30  23.30 -99.000   3.971   0.495   3.470 -99.000 -99.000 -99.000   1.950   0.495   1.362   0.000   0.093   1948.   1448.    691.    744.      0.     13.   1.106   0.163   0.026   0.016   0.010   0.008   0.006   0.011   0.006   0.010   0.049
 2020 209   406  15.00  28.30  21.80 -99.000   3.573   0.446   3.121 -99.000 -99.000 -99.000   1.800   0.446   1.279   0.000   0.076   1951.   1450.    692.    746.      0.     13.   1.025   0.161   0.026   0.016   0.010   0.008   0.006   0.011   0.006   0.010   0.045
