*Fresh Weight Output File

*DSSAT Cropping System Model Ver. 4.8.0.019 -develop  APR 08, 2023 12:34:37

*RUN   1        : IITA-TMS-IBA000070        CSYCA048 UYAB1901    1
 MODEL          : CSYCA048 - Cassava
 EXPERIMENT     : UYAB1901 CS UYT_GXE
 DATA PATH      :
 TREATMENT  1   : IITA-TMS-IBA000070        CSYCA048
  
@YEAR DOY   DAS   DAP TMEAN  GSTD  L#SD    HWAD   FHWAD PDMCD  HIAD  TFGD  WFGD
 2019 169     1     0  28.8     0   0.0       0       0 0.000  0.00  0.00  0.00
 2019 170     2     1  29.1     0   0.0       0       0 0.000  0.00  1.00  0.00
 2019 171     3     2  26.5     0   0.0       0       0 0.000  0.00  1.00  0.00
 2019 172     4     3  26.1     0   0.0       0       0 0.000  0.00  1.00  0.00
 2019 173     5     4  26.0     0   0.0       0       0 0.000  0.00  1.00  0.00
 2019 174     6     5  25.8     0   0.0       0       0 0.000  0.00  0.98  0.00
 2019 175     7     6  24.8     0   0.0       0       0 0.000  0.00  0.84  0.00
 2019 176     8     7  25.9     0   0.0       0       0 0.000  0.00  0.99  0.00
 2019 177     9     8  25.2     0   0.0       0       0 0.000  0.00  0.91  0.00
 2019 178    10     9  24.6 .0045   0.0       0       0 0.000  0.00  0.83  0.00
 2019 179    11    10  24.8 .0090   1.2       0       0 0.000  0.00  0.85  0.00
 2019 180    12    11  26.1 .0136   2.6       0       0 0.000  0.00  1.00  0.00
 2019 181    13    12  26.2 .0179   4.0       1       3 0.261  0.00  1.00  0.00
 2019 182    14    13  25.8 .0221   5.3       2       8 0.262  0.00  0.97  0.00
 2019 183    15    14  26.0 .0265   6.6       3      13 0.262  0.00  0.99  0.00
 2019 184    16    15  26.5 .0308   8.0       5      20 0.262  0.00  1.00  0.00
 2019 185    17    16  25.5 .0349   9.2       8      29 0.263  0.00  0.94  0.00
 2019 186    18    17  25.8 .0393  10.5      10      39 0.263  0.00  0.97  0.00
 2019 187    19    18  26.0 .0437  11.8      13      51 0.263  0.00  0.99  0.00
 2019 188    20    19  26.2 .0480  13.1      17      65 0.263  0.00  1.00  0.00
 2019 189    21    20  25.0 .0522  14.3      20      77 0.264  0.00  0.88  0.00
 2019 190    22    21  24.0 .0568  15.3      24      92 0.266  0.00  0.76  0.00
 2019 191    23    22  26.2 .0613  16.6      29     108 0.265  0.00  1.00  0.00
 2019 192    24    23  24.1 .0656  17.7      33     123 0.267  0.00  0.77  0.00
 2019 193    25    24  24.3 .0701  18.8      37     139 0.267  0.00  0.79  0.00
 2019 194    26    25  24.2 .0747  19.8      42     156 0.268  0.00  0.78  0.00
 2019 195    27    26  25.7 .0792  21.0      46     173 0.268  0.00  0.96  0.00
 2019 196    28    27  26.0 .0836  22.3      51     189 0.268  0.00  1.00  0.00
 2019 197    29    28  25.2 .0879  23.4      51     192 0.268  0.00  0.90  0.00
 2019 198    30    29  26.0 .0924  24.6      52     193 0.268  0.00  1.00  0.00
 2019 199    31    30  25.8 .0967  25.8      51     193 0.263  0.00  0.97  0.00
 2019 200    32    31  23.2 0.101  26.7      49     193 0.254  0.00  0.64  0.00
 2019 201    33    32  24.6 0.106  27.8      50     197 0.254  0.00  0.82  0.00
 2019 202    34    33  25.4 0.110  28.9      50     197 0.251  0.00  0.92  0.00
 2019 203    35    34  24.2 0.115  29.9      50     198 0.251  0.00  0.78  0.00
 2019 204    36    35  25.5 0.119  31.0      50     200 0.251  0.00  0.94  0.00
 2019 205    37    36  25.6 0.124  32.1      51     202 0.251  0.00  0.95  0.00
 2019 206    38    37  26.0 0.128  33.3      48     202 0.240  0.00  1.00  0.00
 2019 207    39    38  25.0 0.132  34.3      50     209 0.241  0.00  0.88  0.00
 2019 208    40    39  25.2 0.137  35.4      50     209 0.238  0.00  0.90  0.00
 2019 209    41    40  24.5 0.141  36.4      51     213 0.239  0.00  0.82  0.00
 2019 210    42    41  23.9 0.146  37.3      51     215 0.239  0.00  0.73  0.00
 2019 211    43    42  24.5 0.150  38.3      51     215 0.239  0.00  0.81  0.00
 2019 212    44    43  24.8 0.155  39.3      52     219 0.239  0.00  0.84  0.00
 2019 213    45    44  25.3 0.159  40.4      54     225 0.240  0.00  0.91  0.00
 2019 214    46    45  24.8 0.164  41.4      54     225 0.240  0.00  0.84  0.00
 2019 215    47    46  24.4 0.169  42.3      55     230 0.241  0.00  0.80  0.00
 2019 216    48    47  24.1 0.173  43.2      56     232 0.241 -0.05  0.77  0.00
 2019 217    49    48  23.1 0.178  44.1      55     232 0.238 -0.05  0.64  0.00
 2019 218    50    49  23.8 0.182  45.0      56     233 0.238 -0.05  0.72  0.00
 2019 219    51    50  24.0 0.187  45.9      54     233 0.231 -0.05  0.76  0.00
 2019 220    52    51  24.0 0.191  46.8      55     238 0.232 -0.05  0.75  0.00
 2019 221    53    52  24.2 0.196  47.7      58     246 0.234 -0.06  0.77  0.00
 2019 222    54    53  24.4 0.200  48.6      59     250 0.235 -0.06  0.80  0.00
 2019 223    55    54  24.2 0.205  49.5      59     251 0.235 -0.07  0.78  0.00
 2019 224    56    55  24.3 0.210  50.4      59     251 0.234 -0.07  0.79  0.00
 2019 225    57    56  25.0 0.214  51.4      62     265 0.236 -0.08  0.88  0.00
 2019 226    58    57  24.6 0.219  52.3      64     271 0.237 -0.09  0.83  0.00
 2019 227    59    58  24.0 0.223  53.1      64     271 0.237 -0.09  0.75  0.00
 2019 228    60    59  24.4 0.228  54.0      65     274 0.238 -0.10  0.80  0.00
 2019 229    61    60  23.5 0.232  54.9      68     285 0.239 -0.11  0.69  0.00
 2019 230    62    61  24.8 0.237  55.8      69     288 0.240 -0.12  0.85  0.00
 2019 231    63    62  22.4 0.241  56.5      67     288 0.234 -0.13  0.55  0.00
 2019 232    64    63  23.7 0.246  57.3      69     292 0.235 -0.14  0.71  0.00
 2019 233    65    64  24.2 0.250  58.2      69     293 0.235 -0.15  0.77  0.00
 2019 234    66    65  24.4 0.255  59.0      72     306 0.237 -0.20  0.80  0.00
 2019 235    67    66  23.8 0.260  59.8      75     315 0.238 -0.25  0.72  0.00
 2019 236    68    67  23.1 0.264  60.6      75     315 0.237 -0.28  0.64  0.00
 2019 237    69    68  24.0 0.269  61.4      77     322 0.238 -0.38  0.75  0.00
 2019 238    70    69  23.8 0.273  62.2      79     332 0.239 -0.61  0.72  0.00
 2019 239    71    70  24.5 0.278  63.1      77     332 0.233 -0.67  0.81  0.00
 2019 240    72    71  24.4 0.282  63.9      84     357 0.236 -9.72  0.80  0.00
 2019 241    73    72  24.5 0.287  64.8      86     363 0.237  1.67  0.81  0.00
 2019 242    74    73  25.1 0.291  65.6      90     378 0.239  0.62  0.89  0.00
 2019 243    75    74  25.8 0.296  66.6      90     378 0.239  0.47  0.97  0.00
 2019 244    76    75  24.4 0.300  67.4      93     388 0.240  0.34  0.79  0.00
 2019 245    77    76  25.0 0.305  68.2      95     395 0.240  0.28  0.87  0.00
 2019 246    78    77  25.5 0.309  69.1      96     399 0.241  0.23  0.93  0.00
 2019 247    79    78  24.7 0.314  70.0      99     411 0.242  0.20  0.83  0.00
 2019 248    80    79  25.2 0.318  70.8     100     415 0.242  0.18  0.91  0.00
 2019 249    81    80  25.3 0.323  71.7     118     480 0.247  0.17  0.91  0.00
 2019 250    82    81  25.3 0.327  72.5     121     490 0.247  0.16  0.91  0.00
 2019 251    83    82  23.6 0.332  73.3     122     494 0.248  0.14  0.70  0.00
 2019 252    84    83  24.6 0.336  74.1     124     500 0.248  0.13  0.83  0.00
 2019 253    85    84  24.6 0.341  74.9     124     500 0.248  0.12  0.83  0.00
 2019 254    86    85  24.0 0.346  75.6     138     548 0.251  0.12  0.74  0.00
 2019 255    87    86  25.1 0.350  76.5     143     567 0.252  0.12  0.89  0.00
 2019 256    88    87  24.7 0.355  77.3     156     614 0.254  0.12  0.83  0.00
 2019 257    89    88  24.8 0.359  78.0     157     616 0.254  0.11  0.85  0.00
 2019 258    90    89  24.4 0.364  78.8     162     637 0.255  0.11  0.79  0.00
 2019 259    91    90  25.3 0.368  79.6     160     637 0.251  0.10  0.92  0.00
 2019 260    92    91  25.3 0.373  80.5     179     707 0.253  0.11  0.92  0.00
 2019 261    93    92  24.1 0.377  81.2     187     734 0.255  0.11  0.76  0.00
 2019 262    94    93  25.0 0.382  82.0     193     755 0.255  0.11  0.88  0.00
 2019 263    95    94  25.1 0.386  82.8     229     885 0.259  0.12  0.89  0.00
 2019 264    96    95  25.6 0.391  83.6     245     943 0.260  0.12  0.95  0.00
 2019 265    97    96  25.7 0.395  84.4     286    1091 0.262  0.13  0.96  0.00
 2019 266    98    97  25.5 0.400  85.2     299    1139 0.263  0.13  0.93  0.00
 2019 267    99    98  26.2 0.404  86.1     340    1288 0.264  0.14  1.00  0.00
 2019 268   100    99  26.2 0.408  86.9     361    1364 0.265  0.15  1.00  0.00
 2019 269   101   100  24.5 0.413  87.6     366    1381 0.265  0.14  0.81  0.00
 2019 270   102   101  24.6 0.417  88.4     399    1495 0.267  0.15  0.83  0.00
 2019 271   103   102  24.8 0.422  89.1     467    1738 0.269  0.17  0.85  0.00
 2019 272   104   103  25.0 0.426  89.9     461    1738 0.265  0.16  0.88  0.00
 2019 273   105   104  24.6 0.431  90.6     499    1872 0.267  0.17  0.83  0.00
 2019 274   106   105  24.4 0.435  91.3     499    1872 0.267  0.16  0.79  0.00
 2019 275   107   106  24.5 0.440  92.0     505    1892 0.267  0.16  0.81  0.00
 2019 276   108   107  25.5 0.444  92.7     518    1939 0.267  0.16  0.93  0.00
 2019 277   109   108  24.2 0.449  93.4     581    2157 0.269  0.17  0.77  0.00
 2019 278   110   109  25.0 0.453  94.1     593    2201 0.270  0.17  0.87  0.00
 2019 279   111   110  24.6 0.458  94.8     608    2253 0.270  0.17  0.82  0.00
 2019 280   112   111  23.5 0.463  95.5     641    2364 0.271  0.18  0.69  0.00
 2019 281   113   112  23.9 0.467  96.1     643    2372 0.271  0.17  0.74  0.00
 2019 282   114   113  24.0 0.472  96.8     698    2560 0.272  0.18  0.75  0.00
 2019 283   115   114  24.9 0.476  97.5     732    2680 0.273  0.19  0.86  0.00
 2019 284   116   115  25.4 0.481  98.2     783    2860 0.274  0.19  0.92  0.00
 2019 285   117   116  24.8 0.485  98.9     832    3035 0.274  0.20  0.84  0.00
 2019 286   118   117  25.4 0.490  99.6     879    3200 0.275  0.21  0.92  0.00
 2019 287   119   118  25.9 0.494 100.4     924    3361 0.275  0.21  0.99  0.00
 2019 288   120   119  25.1 0.499 101.1     972    3530 0.275  0.22  0.89  0.00
 2019 289   121   120  24.9 0.503 101.8     937    3530 0.265  0.21  0.86  0.00
 2019 290   122   121  24.6 0.508 102.4    1023    3829 0.267  0.22  0.83  0.00
 2019 291   123   122  24.2 0.512 103.1    1066    3980 0.268  0.22  0.78  0.00
 2019 292   124   123  23.9 0.517 103.7    1090    4061 0.268  0.23  0.73  0.00
 2019 293   125   124  23.3 0.521 104.3    1160    4298 0.270  0.23  0.66  0.00
 2019 294   126   125  25.0 0.526 104.9    1157    4298 0.269  0.23  0.87  0.00
 2019 295   127   126  25.8 0.530 105.7    1197    4439 0.270  0.23  0.97  0.00
 2019 296   128   127  25.8 0.535 106.4    1240    4592 0.270  0.24  0.97  0.00
 2019 297   129   128  24.6 0.539 107.0    1205    4592 0.262  0.23  0.82  0.00
 2019 298   130   129  24.8 0.544 107.7    1284    4868 0.264  0.24  0.84  0.00
 2019 299   131   130  24.6 0.548 108.3    1305    4941 0.264  0.24  0.83  0.00
 2019 300   132   131  24.0 0.553 108.9    1331    5031 0.265  0.24  0.75  0.00
 2019 301   133   132  23.6 0.557 109.5    1380    5195 0.266  0.24  0.71  0.00
 2019 302   134   133  23.3 0.562 110.0    1415    5313 0.266  0.25  0.66  0.00
 2019 303   135   134  25.1 0.566 110.7    1471    5510 0.267  0.25  0.89  0.00
 2019 304   136   135  25.0 0.571 111.3    1518    5671 0.268  0.26  0.88  0.00
 2019 305   137   136  25.6 0.575 112.0    1586    5911 0.268  0.26  0.95  0.00
 2019 306   138   137  24.2 0.580 112.6    1638    6089 0.269  0.27  0.78  0.00
 2019 307   139   138  26.2 0.584 113.3    1667    6193 0.269  0.27  1.00  0.00
 2019 308   140   139  26.2 0.589 114.0    1722    6390 0.270  0.27  1.00  0.00
 2019 309   141   140  26.2 0.593 114.7    1756    6508 0.270  0.27  1.00  0.00
 2019 310   142   141  26.4 0.597 115.4    1786    6614 0.270  0.27  1.00  0.06
 2019 311   143   142  26.2 0.600 115.9    1826    6758 0.270  0.28  1.00  0.19
 2019 312   144   143  25.9 0.603 116.4    1862    6886 0.270  0.28  0.98  0.30
 2019 313   145   144  25.0 0.606 116.8    1876    6933 0.271  0.28  0.88  0.36
 2019 314   146   145  26.4 0.609 117.2    1894    6997 0.271  0.28  1.00  0.41
 2019 315   147   146  26.1 0.611 117.6    1920    7090 0.271  0.28  1.00  0.44
 2019 316   148   147  25.8 0.613 117.9    1961    7234 0.271  0.28  0.97  0.45
 2019 317   149   148  25.9 0.617 118.5    1993    7345 0.271  0.28  0.99  0.16
 2019 318   150   149  26.5 0.621 119.2    2025    7460 0.271  0.28  1.00  0.00
 2019 319   151   150  26.1 0.626 119.8    2076    7641 0.272  0.29  1.00  0.00
 2019 320   152   151  26.4 0.630 120.5    2125    7812 0.272  0.29  1.00  0.00
 2019 321   153   152  26.1 0.634 121.1    2159    7930 0.272  0.29  1.00  0.09
 2019 322   154   153  26.0 0.637 121.6    2193    8053 0.272  0.29  0.99  0.25
 2019 323   155   154  26.4 0.640 122.0    2217    8136 0.272  0.29  1.00  0.38
 2019 324   156   155  26.8 0.642 122.4    2208    8136 0.271  0.29  1.00  0.44
 2019 325   157   156  26.4 0.644 122.7    2207    8136 0.271  0.29  1.00  0.49
 2019 326   158   157  26.0 0.646 123.0    2234    8231 0.271  0.29  0.99  0.52
 2019 327   159   158  26.9 0.648 123.3    2249    8283 0.272  0.29  1.00  0.55
 2019 328   160   159  26.5 0.650 123.6    2273    8367 0.272  0.29  1.00  0.56
 2019 329   161   160  25.5 0.651 123.9    2291    8431 0.272  0.29  0.94  0.58
 2019 330   162   161  26.1 0.653 124.1    2311    8499 0.272  0.29  1.00  0.60
 2019 331   163   162  24.9 0.655 124.4    2327    8554 0.272  0.29  0.86  0.62
 2019 332   164   163  23.9 0.657 124.6    2339    8596 0.272  0.29  0.74  0.63
 2019 333   165   164  24.3 0.658 124.7    2351    8637 0.272  0.30  0.79  0.65
 2019 334   166   165  24.6 0.660 124.9    2362    8672 0.272  0.30  0.83  0.66
 2019 335   167   166  23.8 0.661 125.1    2374    8715 0.272  0.30  0.72  0.67
 2019 336   168   167  24.1 0.663 125.3    2390    8768 0.273  0.30  0.76  0.69
 2019 337   169   168  24.5 0.664 125.4    2397    8792 0.273  0.30  0.81  0.70
 2019 338   170   169  24.2 0.665 125.6    2405    8820 0.273  0.30  0.78  0.71
 2019 339   171   170  24.8 0.667 125.8    2413    8846 0.273  0.30  0.85  0.72
 2019 340   172   171  23.7 0.668 125.9    2414    8849 0.273  0.30  0.71  0.73
 2019 341   173   172  23.2 0.669 126.0    2410    8849 0.272  0.30  0.66  0.74
 2019 342   174   173  24.1 0.670 126.2    2405    8849 0.272  0.30  0.76  0.76
 2019 343   175   174  23.2 0.671 126.3    2399    8849 0.271  0.30  0.66  0.77
 2019 344   176   175  22.8 0.672 126.4    2397    8849 0.271  0.29  0.60  0.78
 2019 345   177   176  23.9 0.673 126.5    2392    8849 0.270  0.29  0.74  0.79
 2019 346   178   177  23.5 0.674 126.6    2385    8849 0.270  0.29  0.68  0.80
 2019 347   179   178  23.2 0.675 126.7    2378    8849 0.269  0.29  0.66  0.81
 2019 348   180   179  23.2 0.676 126.8    2367    8849 0.267  0.29  0.65  0.82
 2019 349   181   180  23.4 0.677 126.9    2360    8849 0.267  0.29  0.67  0.83
 2019 350   182   181  23.6 0.677 126.9    2353    8849 0.266  0.29  0.71  0.84
 2019 351   183   182  24.4 0.678 127.0    2346    8849 0.265  0.29  0.79  0.85
 2019 352   184   183  25.1 0.679 127.1    2341    8849 0.265  0.29  0.89  0.86
 2019 353   185   184  25.0 0.679 127.2    2337    8849 0.264  0.29  0.88  0.86
 2019 354   186   185  23.7 0.680 127.2    2327    8849 0.263  0.28  0.71  0.87
 2019 355   187   186  22.9 0.680 127.3    2319    8849 0.262  0.28  0.61  0.88
 2019 356   188   187  23.3 0.681 127.4    2309    8849 0.261  0.28  0.67  0.89
 2019 357   189   188  22.9 0.681 127.4    2299    8849 0.260  0.28  0.61  0.89
 2019 358   190   189  23.4 0.682 127.5    2289    8849 0.259  0.28  0.67  0.90
 2019 359   191   190  23.6 0.682 127.5    2281    8849 0.258  0.28  0.70  0.91
 2019 360   192   191  23.5 0.683 127.5    2277    8849 0.257  0.28  0.69  0.92
 2019 361   193   192  23.4 0.683 127.6    2270    8849 0.257  0.28  0.67  0.92
 2019 362   194   193  23.1 0.683 127.6    2265    8849 0.256  0.28  0.64  0.93
 2019 363   195   194  22.6 0.684 127.6    2260    8849 0.255  0.28  0.58  0.94
 2019 364   196   195  22.4 0.684 127.7    2256    8849 0.255  0.28  0.54  0.95
 2019 365   197   196  23.0 0.684 127.7    2247    8849 0.254  0.28  0.62  0.96
 2020   1   198   197  22.8 0.684 127.7    2242    8849 0.253  0.28  0.60  0.97
 2020   2   199   198  21.2 0.684 127.7    2238    8849 0.253  0.28  0.40  0.98
 2020   3   200   199  21.7 0.684 127.7    2233    8849 0.252  0.28  0.46  0.99
 2020   4   201   200  22.4 0.684 127.7    2228    8849 0.252  0.28  0.54  1.00
 2020   5   202   201  23.4 0.684 127.7    2227    8849 0.252  0.28  0.67  1.00
 2020   6   203   202  25.2 0.684 127.7    2225    8849 0.251  0.28  0.90  1.00
 2020   7   204   203  24.8 0.684 127.7    2224    8849 0.251  0.28  0.86  1.00
 2020   8   205   204  25.2 0.684 127.7    2225    8853 0.251  0.28  0.89  1.00
 2020   9   206   205  25.2 0.684 127.7    2228    8862 0.251  0.28  0.90  1.00
 2020  10   207   206  25.4 0.684 127.7    2233    8879 0.251  0.28  0.92  1.00
 2020  11   208   207  25.0 0.684 127.7    2237    8895 0.252  0.28  0.88  1.00
 2020  12   209   208  25.0 0.684 127.7    2244    8919 0.252  0.28  0.88  1.00
 2020  13   210   209  26.2 0.684 127.7    2254    8953 0.252  0.28  1.00  1.00
 2020  14   211   210  26.0 0.684 127.7    2264    8988 0.252  0.28  1.00  1.00
 2020  15   212   211  26.4 0.684 127.7    2278    9039 0.252  0.29  1.00  1.00
 2020  16   213   212  24.5 0.684 127.7    2287    9066 0.252  0.29  0.82  1.00
 2020  17   214   213  24.5 0.684 127.7    2296    9099 0.252  0.29  0.82  1.00
 2020  18   215   214  24.0 0.684 127.7    2312    9151 0.253  0.29  0.75  1.00
 2020  19   216   215  24.4 0.684 127.7    2323    9188 0.253  0.30  0.80  1.00
 2020  20   217   216  25.2 0.684 127.7    2336    9233 0.253  0.30  0.90  1.00
 2020  21   218   217  25.6 0.684 127.7    2349    9278 0.253  0.30  0.95  1.00
 2020  22   219   218  26.7 0.684 127.7    2360    9317 0.253  0.30  1.00  1.00
 2020  23   220   219  25.4 0.684 127.7    2371    9356 0.253  0.30  0.92  1.00
 2020  24   221   220  23.8 0.684 127.7    2376    9374 0.254  0.31  0.72  1.00
 2020  25   222   221  23.2 0.684 127.7    2381    9388 0.254  0.31  0.65  1.00
 2020  26   223   222  23.6 0.684 127.7    2387    9408 0.254  0.31  0.70  1.00
 2020  27   224   223  24.0 0.684 127.7    2387    9410 0.254  0.31  0.76  1.00
 2020  28   225   224  24.5 0.684 127.7    2390    9420 0.254  0.31  0.81  1.00
 2020  29   226   225  25.3 0.684 127.7    2397    9442 0.254  0.31  0.91  1.00
 2020  30   227   226  25.3 0.684 127.7    2401    9456 0.254  0.31  0.91  1.00
 2020  31   228   227  25.2 0.684 127.7    2399    9456 0.254  0.31  0.89  1.00
 2020  32   229   228  25.0 0.684 127.7    2400    9460 0.254  0.31  0.88  1.00
 2020  33   230   229  25.6 0.684 127.7    2400    9460 0.254  0.31  0.95  1.00
 2020  34   231   230  25.1 0.684 127.7    2400    9461 0.254  0.31  0.89  1.00
 2020  35   232   231  24.5 0.684 127.7    2400    9461 0.254  0.31  0.82  1.00
 2020  36   233   232  25.0 0.684 127.7    2399    9461 0.254  0.31  0.88  1.00
 2020  37   234   233  25.2 0.684 127.7    2399    9461 0.254  0.31  0.90  1.00
 2020  38   235   234  26.7 0.684 127.7    2398    9461 0.253  0.32  1.00  1.00
 2020  39   236   235  27.8 0.684 127.7    2401    9471 0.253  0.32  1.00  1.00
 2020  40   237   236  27.0 0.684 127.7    2399    9471 0.253  0.32  1.00  1.00
 2020  41   238   237  27.3 0.684 127.7    2396    9471 0.253  0.32  1.00  1.00
 2020  42   239   238  27.4 0.684 127.7    2396    9471 0.253  0.32  1.00  1.00
 2020  43   240   239  26.0 0.684 127.7    2388    9471 0.252  0.32  1.00  1.00
 2020  44   241   240  26.4 0.684 127.7    2386    9471 0.252  0.32  1.00  1.00
 2020  45   242   241  26.7 0.684 127.7    2380    9471 0.251  0.32  1.00  1.00
 2020  46   243   242  27.0 0.684 127.7    2376    9471 0.251  0.32  1.00  1.00
 2020  47   244   243  27.3 0.684 127.7    2370    9471 0.250  0.32  1.00  1.00
 2020  48   245   244  27.8 0.684 127.7    2364    9471 0.250  0.31  1.00  1.00
 2020  49   246   245  27.2 0.684 127.7    2358    9471 0.249  0.31  1.00  1.00
 2020  50   247   246  26.6 0.684 127.7    2351    9471 0.248  0.31  1.00  1.00
 2020  51   248   247  28.2 0.684 127.7    2347    9471 0.248  0.31  1.00  1.00
 2020  52   249   248  29.5 0.684 127.7    2342    9471 0.247  0.31  1.00  1.00
 2020  53   250   249  29.7 0.684 127.7    2335    9471 0.247  0.31  1.00  1.00
 2020  54   251   250  29.6 0.684 127.7    2330    9471 0.246  0.31  1.00  1.00
 2020  55   252   251  29.0 0.684 127.7    2323    9471 0.245  0.31  1.00  1.00
 2020  56   253   252  27.7 0.684 127.7    2316    9471 0.245  0.31  1.00  1.00
 2020  57   254   253  27.0 0.684 127.7    2307    9471 0.244  0.31  1.00  1.00
 2020  58   255   254  28.8 0.684 127.7    2298    9471 0.243  0.31  1.00  1.00
 2020  59   256   255  28.8 0.684 127.7    2288    9471 0.242  0.31  1.00  1.00
 2020  60   257   256  30.1 0.684 127.7    2279    9471 0.241  0.31  1.00  1.00
 2020  61   258   257  29.7 0.684 127.7    2269    9471 0.240  0.31  1.00  1.00
 2020  62   259   258  29.0 0.684 127.7    2258    9471 0.238  0.30  1.00  1.00
 2020  63   260   259  29.5 0.684 127.7    2245    9471 0.237  0.30  1.00  1.00
 2020  64   261   260  30.2 0.684 127.7    2231    9471 0.236  0.30  1.00  1.00
 2020  65   262   261  30.2 0.684 127.7    2216    9471 0.234  0.30  1.00  1.00
 2020  66   263   262  28.9 0.684 127.7    2201    9471 0.232  0.30  1.00  1.00
 2020  67   264   263  30.6 0.684 127.7    2188    9471 0.231  0.30  1.00  1.00
 2020  68   265   264  30.2 0.684 127.7    2176    9471 0.230  0.30  1.00  1.00
 2020  69   266   265  31.8 0.684 127.7    2165    9471 0.229  0.29  1.00  1.00
 2020  70   267   266  29.9 0.684 127.7    2151    9471 0.227  0.29  1.00  1.00
 2020  71   268   267  29.6 0.684 127.7    2136    9471 0.226  0.29  1.00  1.00
 2020  72   269   268  30.0 0.684 127.7    2120    9471 0.224  0.29  1.00  1.00
 2020  73   270   269  28.6 0.684 127.7    2103    9471 0.222  0.29  1.00  1.00
 2020  74   271   270  28.4 0.684 127.7    2085    9471 0.220  0.28  1.00  1.00
 2020  75   272   271  28.5 0.684 127.7    2069    9471 0.218  0.28  1.00  1.00
 2020  76   273   272  28.5 0.684 127.7    2051    9471 0.217  0.28  1.00  1.00
 2020  77   274   273  30.0 0.684 127.7    2034    9471 0.215  0.28  1.00  1.00
 2020  78   275   274  30.5 0.684 127.7    2017    9471 0.213  0.27  1.00  1.00
 2020  79   276   275  30.8 0.684 127.7    1999    9471 0.211  0.27  1.00  1.00
 2020  80   277   276  29.7 0.684 127.7    1982    9471 0.209  0.27  1.00  1.00
 2020  81   278   277  29.5 0.684 127.7    1963    9471 0.207  0.27  1.00  1.00
 2020  82   279   278  28.9 0.684 127.7    1944    9471 0.205  0.27  1.00  1.00
 2020  83   280   279  28.4 0.684 127.7    1927    9471 0.203  0.26  1.00  1.00
 2020  84   281   280  26.8 0.684 127.7    1909    9471 0.202  0.26  1.00  1.00
 2020  85   282   281  26.8 0.685 127.8    1891    9471 0.200  0.26  1.00  0.85
 2020  86   283   282  27.8 0.686 128.0    1872    9471 0.198  0.26  1.00  0.77
 2020  87   284   283  29.5 0.687 128.2    1852    9471 0.196  0.25  1.00  0.74
 2020  88   285   284  29.8 0.688 128.4    1833    9471 0.194  0.25  1.00  0.78
 2020  89   286   285  28.6 0.688 128.5    1814    9471 0.191  0.25  1.00  0.80
 2020  90   287   286  28.5 0.689 128.7    1795    9471 0.190  0.25  1.00  0.76
 2020  91   288   287  27.5 0.690 128.8    1776    9471 0.188  0.24  1.00  0.77
 2020  92   289   288  27.2 0.691 129.1    1757    9471 0.186  0.24  1.00  0.67
 2020  93   290   289  28.8 0.693 129.3    1736    9471 0.183  0.24  1.00  0.65
 2020  94   291   290  27.7 0.694 129.5    1716    9471 0.181  0.23  1.00  0.69
 2020  95   292   291  28.3 0.695 129.8    1696    9471 0.179  0.23  1.00  0.67
 2020  96   293   292  28.0 0.696 130.0    1675    9471 0.177  0.23  1.00  0.68
 2020  97   294   293  28.2 0.697 130.2    1654    9471 0.175  0.23  1.00  0.70
 2020  98   295   294  29.1 0.699 130.6    1634    9471 0.173  0.22  1.00  0.53
 2020  99   296   295  27.3 0.701 130.9    1615    9471 0.170  0.22  1.00  0.50
 2020 100   297   296  26.0 0.703 131.3    1595    9471 0.168  0.22  1.00  0.39
 2020 101   298   297  25.5 0.706 131.7    1576    9471 0.166  0.22  0.94  0.26
 2020 102   299   298  25.9 0.711 132.5    1554    9471 0.164  0.21  0.99  0.00
 2020 103   300   299  25.8 0.715 133.3    1533    9471 0.162  0.21  0.97  0.00
 2020 104   301   300  27.7 0.720 134.3    1509    9471 0.159  0.21  1.00  0.00
 2020 105   302   301  28.0 0.723 135.4    1484    9471 0.157  0.20  1.00  0.00
 2020 106   303   302  28.4 0.727 136.5    1457    9471 0.154  0.20  1.00  0.00
 2020 107   304   303  29.7 0.731 137.2    1427    9471 0.151  0.19  1.00  0.00
 2020 108   305   304  28.8 0.734 138.0    1399    9471 0.148  0.19  1.00  0.00
 2020 109   306   305  29.1 0.738 138.7    1370    9471 0.145  0.19  1.00  0.00
 2020 110   307   306  27.6 0.741 139.3    1347    9471 0.142  0.18  1.00  0.00
 2020 111   308   307  28.1 0.745 140.0    1326    9471 0.140  0.18  1.00  0.00
 2020 112   309   308  27.5 0.749 140.6    1305    9471 0.138  0.18  1.00  0.00
 2020 113   310   309  27.2 0.753 141.2    1295    9471 0.137  0.18  1.00  0.00
 2020 114   311   310  28.0 0.757 141.9    1279    9471 0.135  0.17  1.00  0.02
 2020 115   312   311  27.2 0.760 142.5    1266    9471 0.134  0.17  1.00  0.03
 2020 116   313   312  27.6 0.764 143.1    1256    9471 0.133  0.17  1.00  0.03
 2020 117   314   313  26.7 0.768 143.6    1250    9471 0.132  0.17  1.00  0.00
 2020 118   315   314  26.5 0.772 144.2    1243    9471 0.131  0.17  1.00  0.00
 2020 119   316   315  27.7 0.776 144.8    1234    9471 0.130  0.17  1.00  0.00
 2020 120   317   316  26.7 0.780 145.4    1227    9471 0.130  0.16  1.00  0.00
 2020 121   318   317  26.4 0.784 146.0    1221    9471 0.129  0.16  1.00  0.00
 2020 122   319   318  26.5 0.788 146.5    1217    9471 0.128  0.16  1.00  0.00
 2020 123   320   319  27.5 0.793 147.1    1215    9471 0.128  0.16  1.00  0.00
 2020 124   321   320  26.5 0.797 147.7    1214    9471 0.128  0.16  1.00  0.00
 2020 125   322   321  26.5 0.801 148.2    1206    9471 0.127  0.16  1.00  0.00
 2020 126   323   322  28.0 0.805 148.9    1202    9471 0.127  0.16  1.00  0.00
 2020 127   324   323  28.4 0.809 149.5    1189    9471 0.126  0.16  1.00  0.00
 2020 128   325   324  28.0 0.812 150.1    1183    9471 0.125  0.16  1.00  0.00
 2020 129   326   325  28.2 0.816 150.7    1176    9471 0.124  0.15  1.00  0.00
 2020 130   327   326  27.4 0.820 151.3    1168    9471 0.123  0.15  1.00  0.00
 2020 131   328   327  26.8 0.824 151.8    1166    9471 0.123  0.15  1.00  0.00
 2020 132   329   328  26.4 0.828 152.4    1170    9483 0.123  0.15  1.00  0.00
 2020 133   330   329  27.0 0.832 152.9    1164    9483 0.123  0.15  1.00  0.00
 2020 134   331   330  27.7 0.836 153.5    1158    9483 0.122  0.15  1.00  0.00
 2020 135   332   331  27.8 0.840 154.1    1156    9483 0.122  0.15  1.00  0.00
 2020 136   333   332  27.9 0.844 154.6    1148    9483 0.121  0.15  1.00  0.00
 2020 137   334   333  27.7 0.848 155.2    1152    9497 0.121  0.15  1.00  0.00
 2020 138   335   334  26.8 0.851 155.7    1161    9528 0.122  0.15  1.00  0.00
 2020 139   336   335  26.3 0.855 156.3    1161    9528 0.122  0.15  1.00  0.00
 2020 140   337   336  26.0 0.860 156.8    1162    9532 0.122  0.15  1.00  0.00
 2020 141   338   337  25.9 0.864 157.2    1166    9545 0.122  0.15  0.98  0.00
 2020 142   339   338  25.7 0.868 157.7    1173    9567 0.123  0.15  0.96  0.00
 2020 143   340   339  26.1 0.873 158.2    1175    9576 0.123  0.15  1.00  0.00
 2020 144   341   340  26.3 0.877 158.7    1182    9597 0.123  0.15  1.00  0.00
 2020 145   342   341  26.5 0.881 159.2    1168    9597 0.122  0.15  1.00  0.00
 2020 146   343   342  25.7 0.885 159.7    1172    9612 0.122  0.15  0.96  0.00
 2020 147   344   343  25.6 0.890 160.2    1192    9678 0.123  0.15  0.96  0.00
 2020 148   345   344  27.2 0.894 160.7    1193    9680 0.123  0.15  1.00  0.00
 2020 149   346   345  26.5 0.898 161.2    1198    9699 0.124  0.15  1.00  0.00
 2020 150   347   346  25.8 0.902 161.7    1222    9780 0.125  0.15  0.97  0.00
 2020 151   348   347  25.0 0.907 162.1    1234    9818 0.126  0.15  0.87  0.00
 2020 152   349   348  25.8 0.911 162.6    1246    9859 0.126  0.15  0.97  0.00
 2020 153   350   349  25.7 0.915 163.0    1235    9859 0.125  0.15  0.96  0.00
 2020 154   351   350  26.2 0.920 163.5    1258    9936 0.127  0.15  1.00  0.00
 2020 155   352   351  25.9 0.924 164.0    1273    9986 0.127  0.15  0.99  0.00
 2020 156   353   352  25.6 0.928 164.4    1282   10017 0.128  0.15  0.96  0.00
 2020 157   354   353  25.6 0.933 164.9    1306   10096 0.129  0.16  0.95  0.00
 2020 158   355   354  25.5 0.937 165.3    1309   10107 0.130  0.16  0.93  0.00
 2020 159   356   355  26.1 0.942 165.8    1334   10191 0.131  0.16  1.00  0.00
 2020 160   357   356  26.5 0.946 166.2    1342   10218 0.131  0.16  1.00  0.00
 2020 161   358   357  24.6 0.950 166.6    1360   10276 0.132  0.16  0.83  0.00
 2020 162   359   358  25.2 0.955 167.1    1381   10345 0.133  0.16  0.90  0.00
 2020 163   360   359  25.0 0.959 167.5    1390   10376 0.134  0.16  0.88  0.00
 2020 164   361   360  25.5 0.964 167.9    1400   10406 0.134  0.16  0.94  0.00
 2020 165   362   361  24.8 0.968 168.3    1422   10480 0.136  0.17  0.84  0.00
 2020 166   363   362  25.5 0.973 168.8    1442   10547 0.137  0.17  0.94  0.00
 2020 167   364   363  26.2 0.977 169.2    1453   10583 0.137  0.17  1.00  0.00
 2020 168   365   364  26.2 0.981 169.7    1476   10659 0.138  0.17  1.00  0.00
 2020 169   366   365  25.7 0.986 170.1    1477   10662 0.139  0.17  0.96  0.00
 2020 170   367   366  25.0 0.990 170.5    1490   10707 0.139  0.17  0.88  0.00
 2020 171   368   367  25.1     1 170.9    1505   10754 0.140  0.17  0.89  0.00
 2020 172   369   368  25.7     1 171.3    1521   10808 0.141  0.17  0.96  0.00
 2020 173   370   369  25.5 1.007 171.7    1535   10855 0.141  0.17  0.94  0.00
 2020 174   371   370  25.0 1.011 172.1    1548   10897 0.142  0.17  0.88  0.00
 2020 175   372   371  24.9 1.014 172.5    1570   10969 0.143  0.18  0.86  0.00
 2020 176   373   372  25.7 1.018 173.0    1589   11032 0.144  0.18  0.96  0.00
 2020 177   374   373  25.3 1.021 173.4    1614   11114 0.145  0.18  0.91  0.00
 2020 178   375   374  24.5 1.025 173.7    1602   11114 0.144  0.18  0.81  0.00
 2020 179   376   375  25.1 1.029 174.1    1626   11192 0.145  0.18  0.89  0.00
 2020 180   377   376  25.1 1.032 174.5    1630   11208 0.145  0.18  0.89  0.00
 2020 181   378   377  25.3 1.036 174.9    1636   11225 0.146  0.18  0.92  0.00
 2020 182   379   378  24.5 1.039 175.3    1653   11280 0.147  0.18  0.82  0.00
 2020 183   380   379  25.2 1.043 175.7    1677   11359 0.148  0.18  0.90  0.00
 2020 184   381   380  24.9 1.047 176.1    1703   11446 0.149  0.18  0.86  0.00
 2020 185   382   381  25.5 1.050 176.5    1705   11450 0.149  0.18  0.94  0.00
 2020 186   383   382  25.1 1.054 176.9    1711   11472 0.149  0.18  0.89  0.00
 2020 187   384   383  24.4 1.058 177.2    1728   11526 0.150  0.19  0.80  0.00
 2020 188   385   384  25.2 1.061 177.6    1749   11595 0.151  0.19  0.90  0.00
 2020 189   386   385  24.5 1.065 178.0    1778   11690 0.152  0.19  0.81  0.00
 2020 190   387   386  24.6 1.068 178.4    1792   11732 0.153  0.19  0.83  0.00
 2020 191   388   387  25.5 1.072 178.8    1806   11781 0.153  0.19  0.94  0.00
 2020 192   389   388  24.6 1.076 179.1    1791   11781 0.152  0.19  0.83  0.00
 2020 193   390   389  24.6 1.079 179.5    1829   11905 0.154  0.19  0.82  0.00
 2020 194   391   390  24.0 1.083 179.8    1831   11910 0.154  0.19  0.76  0.00
 2020 195   392   391  24.6 1.087 180.2    1845   11956 0.154  0.19  0.83  0.00
 2020 196   393   392  23.4 1.090 180.5    1863   12010 0.155  0.19  0.68  0.00
 2020 197   394   393  23.0 1.094 180.8    1873   12044 0.156  0.19  0.62  0.00
 2020 198   395   394  23.5 1.098 181.1    1891   12102 0.156  0.19  0.69  0.00
 2020 199   396   395  24.0 1.101 181.5    1894   12110 0.156  0.19  0.75  0.00
 2020 200   397   396  23.3 1.105 181.8    1926   12210 0.158  0.20  0.67  0.00
 2020 201   398   397  23.9 1.109 182.1    1929   12221 0.158  0.20  0.74  0.00
 2020 202   399   398  23.4 1.112 182.4    1952   12295 0.159  0.20  0.67  0.00
 2020 203   400   399  23.0 1.116 182.7    1987   12404 0.160  0.20  0.62  0.00
 2020 204   401   400  24.1 1.119 183.1    2007   12468 0.161  0.20  0.77  0.00
 2020 205   402   401  24.1 1.123 183.4    2021   12512 0.162  0.20  0.77  0.00
 2020 206   403   402  23.6 1.127 183.7    2039   12569 0.162  0.20  0.70  0.00
 2020 207   404   403  24.2 1.130 184.0    2040   12573 0.162  0.20  0.78  0.00
 2020 208   405   404  24.8 1.134 184.4    2080   12703 0.164  0.21  0.85  0.00
 2020 209   406   405  24.2 1.138 184.7    2083   12713 0.164  0.21  0.77  0.00

*DSSAT Cropping System Model Ver. 4.8.0.019 -develop  APR 08, 2023 12:34:37

*RUN   2        : IITA-TMS-IBA000070        CSYCA048 UYAG1701    1
 MODEL          : CSYCA048 - Cassava
 EXPERIMENT     : UYAG1701 CS UYT_GXE
 DATA PATH      :
 TREATMENT  1   : IITA-TMS-IBA000070        CSYCA048
  
@YEAR DOY   DAS   DAP TMEAN  GSTD  L#SD    HWAD   FHWAD PDMCD  HIAD  TFGD  WFGD
 2017 242     1     0  24.5     0   0.0       0       0 0.000  0.00  0.77  0.00
 2017 243     2     1  24.2     0   0.0       0       0 0.000  0.00  0.78  0.00
 2017 244     3     2  24.3     0   0.0       0       0 0.000  0.00  0.79  0.00
 2017 245     4     3  24.7     0   0.0       0       0 0.000  0.00  0.83  0.00
 2017 246     5     4  23.9     0   0.0       0       0 0.000  0.00  0.74  0.00
 2017 247     6     5  25.2     0   0.0       0       0 0.000  0.00  0.91  0.00
 2017 248     7     6  25.0     0   0.0       0       0 0.000  0.00  0.88  0.00
 2017 249     8     7  25.5     0   0.0       0       0 0.000  0.00  0.93  0.00
 2017 250     9     8  24.5     0   0.0       0       0 0.000  0.00  0.81  0.00
 2017 251    10     9  24.3     0   0.0       0       0 0.000  0.00  0.79  0.00
 2017 252    11    10  25.5 .0046   0.0       0       0 0.000  0.00  0.93  0.00
 2017 253    12    11  26.1 .0090   1.4       0       0 0.000  0.00  1.00  0.00
 2017 254    13    12  24.8 .0133   2.6       0       0 0.000  0.00  0.85  0.00
 2017 255    14    13  24.9 .0178   3.8       1       3 0.268  0.00  0.86  0.00
 2017 256    15    14  24.4 .0224   5.0       2       7 0.270  0.00  0.80  0.00
 2017 257    16    15  25.1 .0269   6.2       3      12 0.269  0.00  0.89  0.00
 2017 258    17    16  24.8 .0314   7.4       5      19 0.269  0.01  0.86  0.00
 2017 259    18    17  24.1 .0360   8.6       8      28 0.270  0.01  0.77  0.00
 2017 260    19    18  24.7 .0405   9.7      10      37 0.270  0.01  0.84  0.00
 2017 261    20    19  25.2 .0451  11.0      13      48 0.270  0.02  0.90  0.00
 2017 262    21    20  26.0 .0496  12.2      16      61 0.268  0.02  0.99  0.00
 2017 263    22    21  25.5 .0539  13.5      20      73 0.268  0.03  0.93  0.00
 2017 264    23    22  25.0 .0583  14.6      23      87 0.268  0.03  0.87  0.00
 2017 265    24    23  24.6 .0629  15.8      26      98 0.269  0.04  0.83  0.00
 2017 266    25    24  24.8 .0674  16.9      27      99 0.269  0.04  0.85  0.00
 2017 267    26    25  24.8 .0720  18.0      27     100 0.269  0.04  0.85  0.00
 2017 268    27    26  25.5 .0766  19.2      27     101 0.269  0.04  0.93  0.00
 2017 269    28    27  25.1 .0810  20.4      26     101 0.263  0.04  0.89  0.00
 2017 270    29    28  25.0 .0855  21.5      27     104 0.264  0.04  0.88  0.00
 2017 271    30    29  25.2 .0900  22.6      27     104 0.264  0.04  0.89  0.00
 2017 272    31    30  24.9 .0946  23.7      28     106 0.264  0.03  0.86  0.00
 2017 273    32    31  25.5 0.099  24.9      28     106 0.263  0.03  0.94  0.00
 2017 274    33    32  25.5 0.104  26.1      29     110 0.264  0.03  0.94  0.00
 2017 275    34    33  26.0 0.108  27.2      29     111 0.264  0.03  1.00  0.00
 2017 276    35    34  26.0 0.112  28.4      31     116 0.264  0.03  1.00  0.00
 2017 277    36    35  25.5 0.117  29.5      31     118 0.264  0.03  0.93  0.00
 2017 278    37    36  24.0 0.121  30.5      32     122 0.264  0.03  0.74  0.00
 2017 279    38    37  25.6 0.126  31.6      34     128 0.264  0.03  0.96  0.00
 2017 280    39    38  25.4 0.130  32.7      34     129 0.264  0.03  0.93  0.00
 2017 281    40    39  25.2 0.134  33.8      35     131 0.265  0.03  0.91  0.00
 2017 282    41    40  25.6 0.139  34.9      36     134 0.265  0.03  0.95  0.00
 2017 283    42    41  25.6 0.143  36.0      36     136 0.265  0.03  0.96  0.00
 2017 284    43    42  25.2 0.148  37.1      38     143 0.265  0.03  0.90  0.00
 2017 285    44    43  25.4 0.152  38.1      38     143 0.265  0.03  0.93  0.00
 2017 286    45    44  25.1 0.157  39.2      40     150 0.265  0.03  0.89  0.00
 2017 287    46    45  25.6 0.161  40.2      42     158 0.265  0.03  0.96  0.00
 2017 288    47    46  26.0 0.166  41.3      43     163 0.266  0.03  0.99  0.00
 2017 289    48    47  25.9 0.170  42.4      45     169 0.266  0.03  0.98  0.00
 2017 290    49    48  26.1 0.174  43.5      46     174 0.266  0.03  1.00  0.00
 2017 291    50    49  24.7 0.178  44.5      46     175 0.266  0.03  0.84  0.00
 2017 292    51    50  25.3 0.183  45.5      48     179 0.266  0.03  0.91  0.00
 2017 293    52    51  26.0 0.187  46.6      50     186 0.266  0.03  1.00  0.00
 2017 294    53    52  26.0 0.192  47.6      51     191 0.266  0.03  1.00  0.00
 2017 295    54    53  25.5 0.196  48.6      53     200 0.266  0.03  0.94  0.00
 2017 296    55    54  26.2 0.200  49.7      55     205 0.266  0.03  1.00  0.00
 2017 297    56    55  26.7 0.205  50.8      56     212 0.266  0.03  1.00  0.00
 2017 298    57    56  26.2 0.209  51.8      59     223 0.266  0.03  1.00  0.00
 2017 299    58    57  25.7 0.213  52.8      62     233 0.267  0.03  0.96  0.00
 2017 300    59    58  25.3 0.217  53.8      64     240 0.267  0.03  0.91  0.00
 2017 301    60    59  24.5 0.222  54.7      67     251 0.267  0.04  0.81  0.00
 2017 302    61    60  25.4 0.226  55.6      69     259 0.267  0.04  0.93  0.00
 2017 303    62    61  25.5 0.231  56.6      71     264 0.268  0.03  0.94  0.00
 2017 304    63    62  26.2 0.235  57.6      72     269 0.268  0.03  1.00  0.00
 2017 305    64    63  25.0 0.239  58.5      74     275 0.268  0.03  0.88  0.01
 2017 306    65    64  25.1 0.244  59.4      74     275 0.267  0.03  0.89  0.07
 2017 307    66    65  25.3 0.248  60.2      77     287 0.268  0.03  0.91  0.10
 2017 308    67    66  25.5 0.252  61.1      80     299 0.268  0.03  0.93  0.08
 2017 309    68    67  25.1 0.256  61.9      82     306 0.268  0.03  0.89  0.04
 2017 310    69    68  25.5 0.261  62.9      85     317 0.268  0.03  0.94  0.03
 2017 311    70    69  25.7 0.265  63.8      88     329 0.268  0.03  0.96  0.01
 2017 312    71    70  25.5 0.269  64.7      91     337 0.269  0.03  0.94  0.05
 2017 313    72    71  26.1 0.273  65.5      92     342 0.269  0.03  1.00  0.15
 2017 314    73    72  26.1 0.276  66.2      94     350 0.269  0.03  1.00  0.25
 2017 315    74    73  26.0 0.279  66.8      95     355 0.269  0.03  1.00  0.30
 2017 316    75    74  25.3 0.282  67.4      97     361 0.269  0.03  0.92  0.35
 2017 317    76    75  26.2 0.285  68.0     100     371 0.269  0.03  1.00  0.35
 2017 318    77    76  26.1 0.287  68.6     100     372 0.269  0.03  1.00  0.37
 2017 319    78    77  26.2 0.290  69.2     102     378 0.269  0.03  1.00  0.38
 2017 320    79    78  25.8 0.293  69.8     103     384 0.269  0.03  0.97  0.39
 2017 321    80    79  25.9 0.295  70.3     105     392 0.269  0.03  0.99  0.39
 2017 322    81    80  25.7 0.298  70.9     117     436 0.270  0.04  0.96  0.33
 2017 323    82    81  24.5 0.301  71.4     120     443 0.270  0.03  0.82  0.33
 2017 324    83    82  24.4 0.304  72.0     154     565 0.273  0.04  0.79  0.29
 2017 325    84    83  25.5 0.307  72.6     159     584 0.273  0.04  0.93  0.30
 2017 326    85    84  25.6 0.310  73.2     164     600 0.273  0.04  0.96  0.35
 2017 327    86    85  25.0 0.313  73.7     176     643 0.273  0.05  0.88  0.38
 2017 328    87    86  25.5 0.316  74.3     192     701 0.273  0.05  0.94  0.32
 2017 329    88    87  25.7 0.319  74.9     199     726 0.273  0.05  0.96  0.35
 2017 330    89    88  24.8 0.322  75.3     211     772 0.274  0.05  0.85  0.40
 2017 331    90    89  24.5 0.324  75.8     212     773 0.274  0.05  0.81  0.44
 2017 332    91    90  24.0 0.327  76.2     207     773 0.267  0.05  0.74  0.47
 2017 333    92    91  25.1 0.329  76.6     202     773 0.261  0.05  0.89  0.50
 2017 334    93    92  25.5 0.331  77.0     198     773 0.256  0.05  0.94  0.52
 2017 335    94    93  24.4 0.333  77.3     193     773 0.250  0.04  0.79  0.54
 2017 336    95    94  26.0 0.335  77.7     192     773 0.249  0.04  1.00  0.55
 2017 337    96    95  25.8 0.337  78.1     192     773 0.248  0.04  0.98  0.55
 2017 338    97    96  26.3 0.339  78.5     187     773 0.242  0.04  1.00  0.56
 2017 339    98    97  25.2 0.341  78.9     183     773 0.236  0.04  0.90  0.57
 2017 340    99    98  25.9 0.343  79.2     179     773 0.231  0.04  0.99  0.58
 2017 341   100    99  25.8 0.344  79.6     174     773 0.226  0.04  0.98  0.58
 2017 342   101   100  25.3 0.346  79.9     170     773 0.221  0.04  0.92  0.59
 2017 343   102   101  24.5 0.348  80.3     164     773 0.212  0.03  0.81  0.53
 2017 344   103   102  24.2 0.351  80.7     160     773 0.207  0.03  0.78  0.45
 2017 345   104   103  23.8 0.353  81.1     156     773 0.202  0.03  0.72  0.47
 2017 346   105   104  25.1 0.355  81.5     152     773 0.197  0.03  0.89  0.51
 2017 347   106   105  24.9 0.357  81.8     150     773 0.194  0.03  0.86  0.55
 2017 348   107   106  24.8 0.359  82.1     147     773 0.190  0.03  0.84  0.57
 2017 349   108   107  26.0 0.361  82.5     144     773 0.186  0.03  1.00  0.59
 2017 350   109   108  26.0 0.363  82.8     140     773 0.181  0.03  0.99  0.61
 2017 351   110   109  26.0 0.365  83.1     137     773 0.177  0.03  0.99  0.62
 2017 352   111   110  26.2 0.367  83.5     153     830 0.184  0.03  1.00  0.51
 2017 353   112   111  24.6 0.369  84.0     168     884 0.190  0.03  0.83  0.44
 2017 354   113   112  26.2 0.373  84.6     186     951 0.196  0.04  1.00  0.21
 2017 355   114   113  27.0 0.377  85.5     205    1020 0.201  0.04  1.00  0.08
 2017 356   115   114  25.8 0.380  86.4     206    1021 0.201  0.04  0.98  0.05
 2017 357   116   115  23.6 0.385  87.1     218    1064 0.205  0.04  0.71  0.00
 2017 358   117   116  24.7 0.389  87.9     238    1135 0.210  0.04  0.84  0.01
 2017 359   118   117  24.1 0.393  88.5     234    1135 0.206  0.04  0.77  0.10
 2017 360   119   118  23.8 0.397  89.0     227    1135 0.200  0.04  0.72  0.18
 2017 361   120   119  24.2 0.401  89.6     220    1135 0.194  0.04  0.78  0.25
 2017 362   121   120  23.5 0.404  90.0     215    1135 0.189  0.04  0.69  0.31
 2017 363   122   121  24.0 0.407  90.5     210    1135 0.185  0.04  0.75  0.37
 2017 364   123   122  24.5 0.409  90.9     206    1135 0.181  0.03  0.81  0.43
 2017 365   124   123  23.8 0.412  91.2     204    1135 0.180  0.03  0.72  0.46
 2018   1   125   124  22.5 0.414  91.5     199    1135 0.175  0.03  0.57  0.48
 2018   2   126   125  22.5 0.416  91.8     193    1135 0.170  0.03  0.56  0.49
 2018   3   127   126  21.7 0.419  92.1     191    1135 0.168  0.03  0.46  0.51
 2018   4   128   127  21.7 0.421  92.3     190    1135 0.168  0.03  0.46  0.52
 2018   5   129   128  21.0 0.423  92.6     189    1135 0.167  0.03  0.38  0.53
 2018   6   130   129  21.1 0.424  92.8     184    1135 0.162  0.03  0.39  0.55
 2018   7   131   130  22.9 0.426  93.1     179    1135 0.158  0.03  0.61  0.56
 2018   8   132   131  24.0 0.428  93.4     174    1135 0.154  0.03  0.76  0.57
 2018   9   133   132  23.3 0.430  93.6     169    1135 0.149  0.03  0.66  0.58
 2018  10   134   133  24.5 0.432  93.9     168    1135 0.148  0.03  0.81  0.59
 2018  11   135   134  24.5 0.433  94.2     164    1135 0.145  0.03  0.82  0.59
 2018  12   136   135  23.2 0.435  94.4     160    1135 0.141  0.02  0.65  0.60
 2018  13   137   136  23.0 0.437  94.7     155    1135 0.137  0.02  0.62  0.61
 2018  14   138   137  22.5 0.439  94.9     154    1135 0.136  0.02  0.57  0.62
 2018  15   139   138  24.5 0.440  95.1     151    1135 0.133  0.02  0.81  0.63
 2018  16   140   139  24.8 0.442  95.4     147    1135 0.130  0.02  0.84  0.63
 2018  17   141   140  24.0 0.444  95.6     143    1135 0.126  0.02  0.74  0.64
 2018  18   142   141  24.3 0.445  95.9     140    1135 0.123  0.02  0.79  0.65
 2018  19   143   142  26.0 0.447  96.1     137    1135 0.120  0.02  1.00  0.66
 2018  20   144   143  26.1 0.448  96.4     133    1135 0.117  0.02  1.00  0.66
 2018  21   145   144  25.0 0.450  96.6     130    1135 0.115  0.02  0.88  0.67
 2018  22   146   145  23.4 0.451  96.9     127    1135 0.112  0.02  0.68  0.68
 2018  23   147   146  24.5 0.453  97.1     124    1135 0.109  0.02  0.81  0.68
 2018  24   148   147  23.6 0.454  97.3     120    1135 0.106  0.02  0.70  0.69
 2018  25   149   148  23.2 0.456  97.4     116    1135 0.103  0.02  0.66  0.69
 2018  26   150   149  22.5 0.457  97.6     114    1135 0.100  0.02  0.57  0.70
 2018  27   151   150  24.3 0.458  97.8     111    1135 0.098  0.02  0.79  0.71
 2018  28   152   151  24.2 0.460  98.0     109    1135 0.096  0.02  0.78  0.71
 2018  29   153   152  25.2 0.461  98.2     111    1142 0.097  0.02  0.91  0.72
 2018  30   154   153  25.3 0.462  98.4     116    1158 0.100  0.02  0.91  0.72
 2018  31   155   154  23.5 0.463  98.6     114    1158 0.099  0.02  0.69  0.73
 2018  32   156   155  23.9 0.465  98.7     112    1158 0.097  0.02  0.73  0.73
 2018  33   157   156  25.5 0.466  98.9     112    1160 0.097  0.02  0.94  0.74
 2018  34   158   157  27.2 0.467  99.2     111    1160 0.095  0.02  1.00  0.74
 2018  35   159   158  26.0 0.468  99.3     115    1175 0.098  0.02  1.00  0.75
 2018  36   160   159  27.1 0.469  99.5     113    1175 0.096  0.02  1.00  0.75
 2018  37   161   160  27.5 0.470  99.8     111    1175 0.094  0.02  1.00  0.76
 2018  38   162   161  26.8 0.471 100.0     121    1213 0.100  0.02  1.00  0.73
 2018  39   163   162  27.2 0.472 100.2     134    1258 0.107  0.02  1.00  0.68
 2018  40   164   163  26.5 0.474 100.5     144    1294 0.111  0.02  1.00  0.62
 2018  41   165   164  26.4 0.476 101.0     204    1508 0.135  0.03  1.00  0.41
 2018  42   166   165  27.2 0.479 101.5     211    1534 0.137  0.03  1.00  0.37
 2018  43   167   166  26.3 0.481 102.0     288    1810 0.159  0.04  1.00  0.38
 2018  44   168   167  25.8 0.484 102.5     326    1948 0.168  0.04  0.97  0.45
 2018  45   169   168  28.0 0.486 103.0     334    1974 0.169  0.04  1.00  0.50
 2018  46   170   169  27.2 0.487 103.5     366    2090 0.175  0.05  1.00  0.55
 2018  47   171   170  27.9 0.489 103.9     377    2129 0.177  0.05  1.00  0.57
 2018  48   172   171  27.8 0.491 104.3     372    2129 0.175  0.05  1.00  0.58
 2018  49   173   172  27.1 0.492 104.7     392    2199 0.178  0.05  1.00  0.58
 2018  50   174   173  27.0 0.494 105.0     430    2335 0.184  0.06  1.00  0.54
 2018  51   175   174  25.8 0.496 105.4     451    2410 0.187  0.06  0.98  0.53
 2018  52   176   175  25.7 0.498 105.7     487    2537 0.192  0.06  0.96  0.55
 2018  53   177   176  25.8 0.500 106.0     536    2712 0.197  0.07  0.97  0.58
 2018  54   178   177  25.8 0.502 106.3     554    2776 0.199  0.07  0.97  0.61
 2018  55   179   178  25.8 0.503 106.6     564    2813 0.200  0.07  0.97  0.56
 2018  56   180   179  26.1 0.505 106.9     605    2961 0.204  0.08  1.00  0.59
 2018  57   181   180  25.2 0.507 107.2     617    3000 0.205  0.08  0.90  0.60
 2018  58   182   181  25.3 0.509 107.4     668    3180 0.210  0.08  0.92  0.60
 2018  59   183   182  25.7 0.510 107.7     697    3286 0.212  0.09  0.96  0.64
 2018  60   184   183  25.9 0.512 108.0     737    3426 0.215  0.09  0.99  0.60
 2018  61   185   184  26.6 0.514 108.3     782    3589 0.218  0.10  1.00  0.62
 2018  62   186   185  27.6 0.515 108.5     815    3706 0.220  0.10  1.00  0.66
 2018  63   187   186  27.6 0.517 108.8     837    3784 0.221  0.10  1.00  0.67
 2018  64   188   187  26.5 0.518 109.1     873    3912 0.223  0.11  1.00  0.67
 2018  65   189   188  26.6 0.519 109.3     909    4041 0.225  0.11  1.00  0.67
 2018  66   190   189  27.4 0.521 109.6     934    4132 0.226  0.11  1.00  0.66
 2018  67   191   190  26.9 0.522 109.8     965    4240 0.228  0.12  1.00  0.67
 2018  68   192   191  26.1 0.523 110.0    1003    4377 0.229  0.12  1.00  0.68
 2018  69   193   192  26.3 0.525 110.3    1039    4505 0.231  0.12  1.00  0.67
 2018  70   194   193  26.6 0.526 110.5    1085    4667 0.232  0.13  1.00  0.69
 2018  71   195   194  26.9 0.527 110.8    1124    4805 0.234  0.13  1.00  0.68
 2018  72   196   195  26.8 0.529 111.0    1168    4963 0.235  0.14  1.00  0.63
 2018  73   197   196  27.2 0.530 111.3    1210    5113 0.237  0.14  1.00  0.61
 2018  74   198   197  26.8 0.532 111.6    1247    5246 0.238  0.15  1.00  0.60
 2018  75   199   198  26.6 0.533 111.9    1289    5395 0.239  0.15  1.00  0.62
 2018  76   200   199  26.3 0.535 112.2    1332    5548 0.240  0.15  1.00  0.59
 2018  77   201   200  25.7 0.537 112.5    1375    5698 0.241  0.16  0.96  0.61
 2018  78   202   201  26.5 0.538 112.7    1399    5785 0.242  0.16  1.00  0.66
 2018  79   203   202  26.6 0.540 112.9    1422    5867 0.242  0.16  1.00  0.70
 2018  80   204   203  25.2 0.541 113.1    1445    5946 0.243  0.17  0.90  0.71
 2018  81   205   204  26.5 0.542 113.3    1477    6059 0.244  0.17  1.00  0.71
 2018  82   206   205  25.5 0.543 113.5    1491    6109 0.244  0.17  0.93  0.74
 2018  83   207   206  26.7 0.544 113.7    1509    6173 0.244  0.17  1.00  0.75
 2018  84   208   207  26.2 0.545 113.8    1525    6229 0.245  0.17  1.00  0.75
 2018  85   209   208  27.7 0.546 114.0    1536    6270 0.245  0.17  1.00  0.76
 2018  86   210   209  26.5 0.547 114.2    1547    6310 0.245  0.18  1.00  0.76
 2018  87   211   210  27.0 0.548 114.4    1555    6335 0.245  0.18  1.00  0.79
 2018  88   212   211  26.2 0.549 114.5    1557    6345 0.245  0.18  1.00  0.80
 2018  89   213   212  26.4 0.550 114.6    1562    6363 0.246  0.18  1.00  0.81
 2018  90   214   213  27.0 0.550 114.8    1555    6363 0.244  0.18  1.00  0.83
 2018  91   215   214  26.2 0.551 114.9    1545    6363 0.243  0.18  1.00  0.84
 2018  92   216   215  26.3 0.552 115.0    1536    6363 0.241  0.17  1.00  0.84
 2018  93   217   216  27.2 0.552 115.1    1527    6363 0.240  0.17  1.00  0.85
 2018  94   218   217  27.5 0.553 115.2    1523    6363 0.239  0.17  1.00  0.85
 2018  95   219   218  26.3 0.554 115.3    1515    6363 0.238  0.17  1.00  0.84
 2018  96   220   219  25.7 0.554 115.4    1510    6363 0.237  0.17  0.96  0.81
 2018  97   221   220  26.5 0.556 115.6    1510    6363 0.237  0.17  1.00  0.73
 2018  98   222   221  26.2 0.557 115.8    1510    6363 0.237  0.17  1.00  0.75
 2018  99   223   222  26.3 0.558 116.0    1508    6363 0.237  0.17  1.00  0.72
 2018 100   224   223  25.6 0.559 116.2    1522    6410 0.237  0.17  0.95  0.65
 2018 101   225   224  26.9 0.561 116.5    1530    6438 0.238  0.17  1.00  0.66
 2018 102   226   225  27.0 0.562 116.7    1534    6453 0.238  0.17  1.00  0.71
 2018 103   227   226  26.7 0.563 116.9    1538    6468 0.238  0.17  1.00  0.75
 2018 104   228   227  26.8 0.564 117.0    1532    6468 0.237  0.17  1.00  0.78
 2018 105   229   228  26.0 0.565 117.2    1520    6468 0.235  0.17  0.99  0.77
 2018 106   230   229  26.3 0.566 117.3    1522    6478 0.235  0.17  1.00  0.79
 2018 107   231   230  26.9 0.567 117.5    1527    6493 0.235  0.17  1.00  0.71
 2018 108   232   231  26.6 0.568 117.7    1540    6541 0.235  0.17  1.00  0.67
 2018 109   233   232  26.2 0.570 118.0    1567    6637 0.236  0.17  1.00  0.63
 2018 110   234   233  26.3 0.572 118.3    1583    6694 0.237  0.17  1.00  0.58
 2018 111   235   234  25.8 0.573 118.6    1618    6817 0.237  0.18  0.97  0.54
 2018 112   236   235  26.5 0.576 118.9    1643    6903 0.238  0.18  1.00  0.53
 2018 113   237   236  26.4 0.577 119.2    1665    6982 0.238  0.18  1.00  0.57
 2018 114   238   237  26.2 0.579 119.5    1678    7030 0.239  0.18  1.00  0.61
 2018 115   239   238  26.2 0.581 119.7    1676    7030 0.238  0.18  1.00  0.62
 2018 116   240   239  25.5 0.582 120.0    1696    7097 0.239  0.18  0.94  0.59
 2018 117   241   240  26.8 0.584 120.2    1686    7097 0.238  0.18  1.00  0.62
 2018 118   242   241  26.7 0.585 120.5    1697    7135 0.238  0.18  1.00  0.64
 2018 119   243   242  26.6 0.587 120.7    1697    7136 0.238  0.18  1.00  0.69
 2018 120   244   243  26.9 0.588 120.9    1687    7136 0.236  0.18  1.00  0.73
 2018 121   245   244  27.0 0.589 121.1    1682    7136 0.236  0.18  1.00  0.75
 2018 122   246   245  26.2 0.590 121.3    1685    7146 0.236  0.18  1.00  0.67
 2018 123   247   246  26.5 0.592 121.6    1690    7166 0.236  0.18  1.00  0.51
 2018 124   248   247  26.6 0.594 122.0    1712    7242 0.236  0.18  1.00  0.50
 2018 125   249   248  26.4 0.596 122.3    1699    7242 0.235  0.18  1.00  0.54
 2018 126   250   249  26.8 0.598 122.6    1701    7247 0.235  0.18  1.00  0.57
 2018 127   251   250  26.4 0.600 122.9    1706    7264 0.235  0.18  1.00  0.55
 2018 128   252   251  26.0 0.602 123.2    1696    7264 0.233  0.18  1.00  0.55
 2018 129   253   252  25.6 0.604 123.4    1704    7293 0.234  0.18  0.96  0.54
 2018 130   254   253  25.2 0.606 123.7    1685    7293 0.231  0.18  0.91  0.52
 2018 131   255   254  24.8 0.608 124.0    1696    7331 0.231  0.18  0.84  0.46
 2018 132   256   255  25.1 0.611 124.4    1696    7331 0.231  0.18  0.89  0.37
 2018 133   257   256  25.1 0.614 124.9    1713    7389 0.232  0.18  0.89  0.31
 2018 134   258   257  25.4 0.617 125.4    1709    7389 0.231  0.18  0.92  0.30
 2018 135   259   258  25.7 0.621 125.9    1732    7470 0.232  0.18  0.96  0.28
 2018 136   260   259  25.9 0.624 126.5    1738    7491 0.232  0.18  0.99  0.26
 2018 137   261   260  24.8 0.627 127.0    1743    7507 0.232  0.18  0.84  0.24
 2018 138   262   261  25.9 0.631 127.5    1744    7510 0.232  0.18  0.98  0.21
 2018 139   263   262  26.0 0.634 128.1    1764    7582 0.233  0.18  1.00  0.18
 2018 140   264   263  26.0 0.638 128.6    1765    7587 0.233  0.18  1.00  0.16
 2018 141   265   264  25.6 0.642 129.1    1773    7612 0.233  0.18  0.95  0.16
 2018 142   266   265  25.0 0.645 129.6    1776    7624 0.233  0.18  0.87  0.15
 2018 143   267   266  26.0 0.649 130.1    1808    7735 0.234  0.18  1.00  0.14
 2018 144   268   267  26.0 0.653 130.6    1817    7765 0.234  0.18  1.00  0.12
 2018 145   269   268  25.6 0.657 131.1    1816    7765 0.234  0.18  0.95  0.10
 2018 146   270   269  25.2 0.661 131.7    1839    7847 0.234  0.18  0.90  0.09
 2018 147   271   270  25.3 0.665 132.2    1857    7908 0.235  0.18  0.91  0.07
 2018 148   272   271  25.6 0.669 132.7    1863    7927 0.235  0.18  0.95  0.06
 2018 149   273   272  25.8 0.673 133.3    1850    7927 0.233  0.18  0.97  0.05
 2018 150   274   273  25.5 0.678 133.9    1869    7990 0.234  0.18  0.94  0.04
 2018 151   275   274  26.1 0.682 134.4    1893    8074 0.234  0.19  1.00  0.03
 2018 152   276   275  26.2 0.686 135.0    1900    8098 0.235  0.19  1.00  0.04
 2018 153   277   276  25.6 0.690 135.6    1900    8099 0.235  0.18  0.96  0.05
 2018 154   278   277  25.5 0.694 136.1    1924    8180 0.235  0.19  0.94  0.03
 2018 155   279   278  25.4 0.699 136.7    1947    8260 0.236  0.19  0.92  0.02
 2018 156   280   279  25.9 0.703 137.2    1971    8343 0.236  0.19  0.98  0.02
 2018 157   281   280  25.7 0.707 137.8    1955    8343 0.234  0.19  0.96  0.02
 2018 158   282   281  26.0 0.712 138.3    1991    8466 0.235  0.19  1.00  0.02
 2018 159   283   282  25.6 0.716 138.9    2014    8546 0.236  0.19  0.96  0.01
 2018 160   284   283  24.9 0.720 139.4    2033    8612 0.236  0.19  0.86  0.00
 2018 161   285   284  24.6 0.725 139.9    2047    8656 0.236  0.19  0.83  0.00
 2018 162   286   285  25.3 0.729 140.5    2067    8727 0.237  0.19  0.91  0.00
 2018 163   287   286  25.5 0.734 141.0    2092    8813 0.237  0.20  0.94  0.00
 2018 164   288   287  25.8 0.738 141.5    2110    8875 0.238  0.20  0.97  0.00
 2018 165   289   288  26.2 0.742 142.1    2128    8935 0.238  0.20  1.00  0.00
 2018 166   290   289  25.7 0.747 142.7    2164    9061 0.239  0.20  0.96  0.00
 2018 167   291   290  25.0 0.751 143.2    2174    9093 0.239  0.20  0.88  0.00
 2018 168   292   291  25.1 0.756 143.7    2194    9160 0.239  0.20  0.89  0.00
 2018 169   293   292  24.2 0.760 144.2    2201    9186 0.240  0.20  0.78  0.00
 2018 170   294   293  24.4 0.765 144.6    2225    9264 0.240  0.20  0.79  0.00
 2018 171   295   294  23.6 0.769 145.1    2224    9264 0.240  0.20  0.70  0.00
 2018 172   296   295  23.3 0.774 145.5    2247    9341 0.241  0.20  0.66  0.00
 2018 173   297   296  24.5 0.778 146.0    2259    9379 0.241  0.20  0.82  0.00
 2018 174   298   297  24.2 0.783 146.4    2250    9379 0.240  0.20  0.78  0.00
 2018 175   299   298  24.1 0.788 146.9    2264    9423 0.240  0.20  0.76  0.00
 2018 176   300   299  24.8 0.792 147.4    2276    9466 0.240  0.20  0.86  0.00
 2018 177   301   300  24.5 0.797 147.9    2294    9524 0.241  0.21  0.82  0.00
 2018 178   302   301  25.3 0.801 148.4    2302    9553 0.241  0.21  0.91  0.00
 2018 179   303   302  24.5 0.806 148.8    2320    9612 0.241  0.21  0.81  0.00
 2018 180   304   303  24.2 0.810 149.3    2332    9651 0.242  0.21  0.78  0.00
 2018 181   305   304  24.6 0.815 149.8    2342    9685 0.242  0.21  0.83  0.00
 2018 182   306   305  23.8 0.819 150.2    2347    9701 0.242  0.21  0.72  0.00
 2018 183   307   306  24.6 0.824 150.7    2370    9779 0.242  0.21  0.82  0.00
 2018 184   308   307  23.8 0.828 151.1    2373    9787 0.242  0.21  0.73  0.00
 2018 185   309   308  25.1 0.833 151.6    2393    9854 0.243  0.21  0.89  0.00
 2018 186   310   309  24.3 0.838 152.0    2405    9895 0.243  0.21  0.79  0.00
 2018 187   311   310  24.4 0.842 152.5    2430    9976 0.244  0.21  0.79  0.00
 2018 188   312   311  24.0 0.847 152.9    2413    9976 0.242  0.21  0.75  0.00
 2018 189   313   312  25.1 0.851 153.4    2453   10109 0.243  0.21  0.89  0.00
 2018 190   314   313  25.1 0.856 153.8    2467   10154 0.243  0.21  0.89  0.00
 2018 191   315   314  25.4 0.860 154.3    2482   10206 0.243  0.21  0.93  0.00
 2018 192   316   315  25.5 0.865 154.8    2497   10257 0.243  0.21  0.93  0.00
 2018 193   317   316  24.9 0.869 155.3    2510   10298 0.244  0.21  0.86  0.00
 2018 194   318   317  24.7 0.874 155.7    2527   10356 0.244  0.22  0.84  0.00

*DSSAT Cropping System Model Ver. 4.8.0.019 -develop  APR 08, 2023 12:34:38

*RUN   3        : IITA-TMS-IBA000070        CSYCA048 UYAG1801    1
 MODEL          : CSYCA048 - Cassava
 EXPERIMENT     : UYAG1801 CS UYT_GXE
 DATA PATH      :
 TREATMENT  1   : IITA-TMS-IBA000070        CSYCA048
  
@YEAR DOY   DAS   DAP TMEAN  GSTD  L#SD    HWAD   FHWAD PDMCD  HIAD  TFGD  WFGD
 2018 172     1     0  23.3     0   0.0       0       0 0.000  0.00  0.84  0.00
 2018 173     2     1  24.5     0   0.0       0       0 0.000  0.00  0.82  0.00
 2018 174     3     2  24.2     0   0.0       0       0 0.000  0.00  0.78  0.00
 2018 175     4     3  24.1     0   0.0       0       0 0.000  0.00  0.76  0.00
 2018 176     5     4  24.8     0   0.0       0       0 0.000  0.00  0.86  0.00
 2018 177     6     5  24.5     0   0.0       0       0 0.000  0.00  0.82  0.00
 2018 178     7     6  25.3     0   0.0       0       0 0.000  0.00  0.91  0.00
 2018 179     8     7  24.5     0   0.0       0       0 0.000  0.00  0.81  0.00
 2018 180     9     8  24.2     0   0.0       0       0 0.000  0.00  0.78  0.00
 2018 181    10     9  24.6     0   0.0       0       0 0.000  0.00  0.83  0.00
 2018 182    11    10  23.8     0   0.0       0       0 0.000  0.00  0.72  0.00
 2018 183    12    11  24.6 .0046   0.0       0       0 0.000  0.00  0.82  0.00
 2018 184    13    12  23.8 .0091   1.1       0       0 0.000  0.00  0.73  0.00
 2018 185    14    13  25.1 .0137   2.4       0       0 0.000  0.00  0.89  0.00
 2018 186    15    14  24.3 .0182   3.6       1       3 0.272  0.00  0.79  0.00
 2018 187    16    15  24.4 .0227   4.7       2       7 0.272  0.00  0.79  0.00
 2018 188    17    16  24.0 .0273   5.8       3      12 0.273  0.00  0.75  0.00
 2018 189    18    17  25.1 .0319   7.1       5      19 0.271  0.01  0.89  0.00
 2018 190    19    18  25.1 .0364   8.3       7      26 0.270  0.01  0.89  0.00
 2018 191    20    19  25.4 .0409   9.5      10      36 0.269  0.01  0.93  0.00
 2018 192    21    20  25.5 .0454  10.7      13      47 0.268  0.02  0.93  0.00
 2018 193    22    21  24.9 .0498  11.9      16      60 0.269  0.02  0.86  0.00
 2018 194    23    22  24.7 .0543  13.1      20      73 0.269  0.03  0.84  0.00
 2018 195    24    23  25.1 .0589  14.2      23      85 0.269  0.03  0.89  0.00
 2018 196    25    24  25.2 .0634  15.4      27     100 0.269  0.04  0.91  0.00
 2018 197    26    25  25.3 .0679  16.6      27     101 0.269  0.04  0.92  0.00
 2018 198    27    26  24.2 .0724  17.7      27     101 0.269  0.04  0.77  0.00
 2018 199    28    27  24.5 .0769  18.8      27     101 0.268  0.04  0.81  0.00
 2018 200    29    28  25.3 .0815  19.9      27     101 0.268  0.04  0.91  0.00
 2018 201    30    29  24.6 .0860  21.0      27     101 0.267  0.04  0.83  0.00
 2018 202    31    30  24.1 .0905  22.1      26     101 0.257  0.03  0.77  0.00
 2018 203    32    31  25.0 .0951  23.2      27     103 0.258  0.03  0.88  0.00
 2018 204    33    32  25.6 0.100  24.3      27     104 0.258  0.03  0.95  0.00
 2018 205    34    33  25.5 0.104  25.5      27     104 0.255  0.03  0.94  0.00
 2018 206    35    34  24.8 0.108  26.6      26     104 0.254  0.03  0.84  0.00
 2018 207    36    35  24.8 0.113  27.6      26     104 0.250  0.03  0.84  0.00
 2018 208    37    36  25.0 0.118  28.7      26     105 0.251  0.03  0.88  0.00
 2018 209    38    37  24.5 0.122  29.7      27     107 0.251  0.03  0.81  0.00
 2018 210    39    38  24.1 0.127  30.7      26     107 0.244  0.03  0.76  0.00
 2018 211    40    39  24.1 0.131  31.7      28     112 0.245  0.03  0.76  0.00
 2018 212    41    40  23.8 0.136  32.7      28     113 0.245  0.03  0.73  0.00
 2018 213    42    41  24.1 0.140  33.6      28     114 0.246  0.03  0.77  0.00
 2018 214    43    42  24.3 0.145  34.6      28     114 0.246  0.03  0.79  0.00
 2018 215    44    43  24.4 0.149  35.6      29     118 0.247  0.03  0.79  0.00
 2018 216    45    44  24.2 0.154  36.6      30     123 0.248  0.03  0.78  0.00
 2018 217    46    45  23.6 0.159  37.5      31     125 0.248  0.03  0.70  0.00
 2018 218    47    46  23.1 0.163  38.3      31     125 0.248  0.03  0.64  0.00
 2018 219    48    47  24.4 0.168  39.3      32     127 0.249  0.03  0.80  0.00
 2018 220    49    48  24.6 0.172  40.3      33     131 0.249  0.03  0.82  0.00
 2018 221    50    49  24.5 0.177  41.3      34     134 0.250  0.03  0.82  0.00
 2018 222    51    50  24.6 0.181  42.2      34     137 0.251  0.03  0.83  0.00
 2018 223    52    51  25.0 0.186  43.2      35     141 0.251  0.03  0.88  0.00
 2018 224    53    52  24.5 0.190  44.2      36     142 0.252  0.03  0.81  0.00
 2018 225    54    53  24.3 0.195  45.1      36     144 0.252  0.03  0.79  0.00
 2018 226    55    54  24.6 0.199  46.0      37     146 0.252  0.03  0.83  0.00
 2018 227    56    55  25.0 0.204  47.0      38     149 0.253  0.03  0.87  0.00
 2018 228    57    56  24.3 0.209  47.9      39     153 0.253  0.03  0.79  0.00
 2018 229    58    57  24.0 0.213  48.8      39     155 0.254  0.03  0.75  0.00
 2018 230    59    58  24.6 0.218  49.7      41     159 0.254  0.03  0.83  0.00
 2018 231    60    59  24.5 0.222  50.6      42     164 0.255  0.03  0.81  0.00
 2018 232    61    60  24.0 0.227  51.5      41     164 0.249  0.03  0.76  0.00
 2018 233    62    61  23.4 0.231  52.3      41     166 0.250  0.03  0.68  0.00
 2018 234    63    62  23.5 0.236  53.2      42     169 0.250  0.03  0.69  0.00
 2018 235    64    63  23.9 0.240  54.0      44     176 0.252  0.03  0.74  0.00
 2018 236    65    64  23.4 0.245  54.8      44     176 0.250  0.03  0.67  0.00
 2018 237    66    65  23.8 0.250  55.6      46     184 0.251  0.03  0.72  0.00
 2018 238    67    66  25.0 0.254  56.6      49     194 0.253  0.03  0.87  0.00
 2018 239    68    67  25.1 0.259  57.5      49     195 0.253  0.03  0.89  0.00
 2018 240    69    68  25.0 0.263  58.4      51     202 0.254  0.03  0.88  0.00
 2018 241    70    69  24.6 0.268  59.3      53     208 0.254  0.03  0.82  0.00
 2018 242    71    70  24.4 0.272  60.1      54     213 0.255  0.03  0.80  0.00
 2018 243    72    71  24.5 0.277  61.0      55     217 0.255  0.03  0.81  0.00
 2018 244    73    72  24.2 0.281  61.8      57     223 0.256  0.03  0.78  0.00
 2018 245    74    73  24.5 0.286  62.7      58     228 0.257  0.03  0.82  0.00
 2018 246    75    74  24.2 0.291  63.5      61     237 0.258  0.03  0.78  0.00
 2018 247    76    75  25.0 0.295  64.4      64     246 0.258  0.03  0.88  0.00
 2018 248    77    76  24.8 0.300  65.2      65     253 0.259  0.03  0.85  0.00
 2018 249    78    77  23.9 0.304  66.0      67     257 0.259  0.03  0.74  0.00
 2018 250    79    78  23.6 0.309  66.8      66     257 0.258  0.03  0.71  0.00
 2018 251    80    79  24.3 0.313  67.6      69     265 0.259  0.03  0.79  0.00
 2018 252    81    80  24.2 0.318  68.4      71     272 0.260  0.03  0.78  0.00
 2018 253    82    81  24.3 0.322  69.2      72     279 0.260  0.03  0.79  0.00
 2018 254    83    82  24.7 0.327  70.0      77     294 0.261  0.03  0.84  0.00
 2018 255    84    83  24.7 0.332  70.8      80     305 0.262  0.03  0.84  0.00
 2018 256    85    84  24.4 0.336  71.6      80     307 0.262  0.03  0.80  0.00
 2018 257    86    85  25.0 0.341  72.5      84     320 0.263  0.03  0.87  0.00
 2018 258    87    86  25.2 0.345  73.3      87     331 0.263  0.03  0.90  0.00
 2018 259    88    87  25.0 0.350  74.1      90     341 0.264  0.03  0.88  0.00
 2018 260    89    88  25.8 0.354  75.0      93     351 0.264  0.03  0.97  0.00
 2018 261    90    89  24.8 0.359  75.8      90     351 0.257  0.03  0.84  0.00
 2018 262    91    90  25.2 0.363  76.6     119     455 0.262  0.04  0.91  0.00
 2018 263    92    91  26.1 0.368  77.5     120     459 0.262  0.04  1.00  0.00
 2018 264    93    92  26.2 0.372  78.4     123     469 0.262  0.04  1.00  0.00
 2018 265    94    93  25.0 0.376  79.2     128     488 0.263  0.04  0.88  0.00
 2018 266    95    94  24.5 0.381  79.9     126     488 0.259  0.04  0.81  0.00
 2018 267    96    95  25.2 0.385  80.8     154     587 0.262  0.04  0.90  0.00
 2018 268    97    96  25.1 0.390  81.5     154     587 0.262  0.04  0.89  0.00
 2018 269    98    97  25.2 0.394  82.3     172     654 0.264  0.05  0.91  0.00
 2018 270    99    98  25.3 0.399  83.1     171     654 0.262  0.05  0.91  0.00
 2018 271   100    99  24.5 0.403  83.9     195     738 0.265  0.05  0.82  0.00
 2018 272   101   100  24.8 0.408  84.6     204     769 0.265  0.05  0.85  0.00
 2018 273   102   101  25.1 0.412  85.4     205     774 0.265  0.05  0.89  0.00
 2018 274   103   102  24.5 0.417  86.2     202     774 0.261  0.05  0.82  0.00
 2018 275   104   103  24.9 0.421  86.9     233     885 0.264  0.06  0.86  0.00
 2018 276   105   104  25.5 0.426  87.7     265     999 0.265  0.06  0.93  0.00
 2018 277   106   105  25.1 0.430  88.4     268    1009 0.266  0.06  0.89  0.00
 2018 278   107   106  25.0 0.435  89.2     272    1023 0.266  0.06  0.88  0.00
 2018 279   108   107  24.6 0.439  89.9     313    1167 0.268  0.07  0.82  0.00
 2018 280   109   108  25.4 0.444  90.7     332    1234 0.269  0.07  0.93  0.00
 2018 281   110   109  25.4 0.448  91.4     382    1414 0.270  0.08  0.92  0.00
 2018 282   111   110  25.1 0.453  92.2     407    1503 0.271  0.08  0.89  0.00
 2018 283   112   111  25.8 0.457  93.0     412    1521 0.271  0.08  0.97  0.00
 2018 284   113   112  25.5 0.462  93.7     432    1592 0.271  0.09  0.93  0.00
 2018 285   114   113  25.0 0.466  94.4     464    1703 0.272  0.09  0.87  0.00
 2018 286   115   114  25.4 0.471  95.2     486    1781 0.273  0.09  0.92  0.00
 2018 287   116   115  25.5 0.475  95.9     486    1783 0.273  0.09  0.94  0.00
 2018 288   117   116  25.8 0.480  96.7     521    1908 0.273  0.10  0.98  0.00
 2018 289   118   117  25.5 0.484  97.4     514    1908 0.269  0.09  0.93  0.00
 2018 290   119   118  25.3 0.488  98.1     587    2167 0.271  0.10  0.91  0.00
 2018 291   120   119  24.3 0.493  98.8     610    2245 0.272  0.11  0.79  0.00
 2018 292   121   120  26.2 0.497  99.6     646    2374 0.272  0.11  1.00  0.00
 2018 293   122   121  26.7 0.502 100.3     659    2422 0.272  0.11  1.00  0.00
 2018 294   123   122  26.3 0.506 101.1     690    2534 0.272  0.12  1.00  0.00
 2018 295   124   123  25.6 0.510 101.8     710    2603 0.273  0.12  0.95  0.00
 2018 296   125   124  25.8 0.514 102.6     770    2820 0.273  0.13  0.98  0.00
 2018 297   126   125  24.6 0.519 103.2     813    2969 0.274  0.13  0.82  0.00
 2018 298   127   126  25.3 0.523 103.9     844    3079 0.274  0.13  0.92  0.00
 2018 299   128   127  25.8 0.528 104.6     894    3256 0.275  0.14  0.97  0.00
 2018 300   129   128  25.5 0.532 105.3     913    3324 0.275  0.14  0.94  0.00
 2018 301   130   129  26.0 0.537 106.1     982    3568 0.275  0.15  1.00  0.00
 2018 302   131   130  25.4 0.541 106.7     956    3568 0.268  0.14  0.92  0.00
 2018 303   132   131  26.0 0.545 107.5    1043    3878 0.269  0.15  1.00  0.00
 2018 304   133   132  26.2 0.550 108.2    1092    4052 0.269  0.16  1.00  0.00
 2018 305   134   133  25.3 0.554 108.8    1131    4189 0.270  0.16  0.92  0.00
 2018 306   135   134  25.8 0.558 109.5    1189    4396 0.271  0.17  0.97  0.00
 2018 307   136   135  25.5 0.563 110.2    1227    4528 0.271  0.17  0.93  0.00
 2018 308   137   136  26.2 0.567 110.9    1285    4736 0.271  0.17  1.00  0.00
 2018 309   138   137  25.0 0.571 111.6    1349    4956 0.272  0.18  0.87  0.00
 2018 310   139   138  24.8 0.576 112.2    1359    4990 0.272  0.18  0.84  0.00
 2018 311   140   139  25.0 0.580 112.8    1435    5254 0.273  0.19  0.88  0.00
 2018 312   141   140  26.2 0.585 113.5    1481    5419 0.273  0.19  1.00  0.00
 2018 313   142   141  25.4 0.589 114.2    1526    5577 0.274  0.19  0.93  0.00
 2018 314   143   142  26.6 0.594 114.9    1564    5711 0.274  0.20  1.00  0.00
 2018 315   144   143  26.5 0.598 115.6    1618    5902 0.274  0.20  1.00  0.00
 2018 316   145   144  26.1 0.602 116.2    1651    6020 0.274  0.20  1.00  0.00
 2018 317   146   145  26.2 0.606 116.9    1687    6148 0.274  0.20  1.00  0.00
 2018 318   147   146  26.4 0.610 117.6    1725    6280 0.275  0.21  1.00  0.00
 2018 319   148   147  26.2 0.615 118.3    1729    6296 0.275  0.21  1.00  0.00
 2018 320   149   148  25.7 0.619 118.9    1777    6465 0.275  0.21  0.96  0.00
 2018 321   150   149  25.2 0.623 119.5    1836    6667 0.275  0.21  0.90  0.00
 2018 322   151   150  25.2 0.628 120.1    1896    6875 0.276  0.22  0.91  0.00
 2018 323   152   151  25.0 0.632 120.7    1927    6983 0.276  0.22  0.88  0.00
 2018 324   153   152  24.5 0.637 121.3    1992    7204 0.276  0.22  0.81  0.00
 2018 325   154   153  25.8 0.641 121.9    2057    7434 0.277  0.23  0.97  0.00
 2018 326   155   154  26.5 0.646 122.6    2088    7543 0.277  0.23  1.00  0.00
 2018 327   156   155  27.0 0.650 123.3    2134    7704 0.277  0.23  1.00  0.00
 2018 328   157   156  25.3 0.654 123.9    2177    7851 0.277  0.23  0.92  0.00
 2018 329   158   157  24.5 0.658 124.5    2197    7920 0.277  0.23  0.81  0.00
 2018 330   159   158  26.0 0.663 125.1    2243    8081 0.278  0.24  1.00  0.00
 2018 331   160   159  26.4 0.667 125.7    2265    8160 0.278  0.24  1.00  0.01
 2018 332   161   160  25.8 0.671 126.3    2316    8338 0.278  0.24  0.97  0.05
 2018 333   162   161  25.1 0.675 126.8    2359    8485 0.278  0.24  0.89  0.13
 2018 334   163   162  25.5 0.679 127.3    2405    8645 0.278  0.25  0.94  0.20
 2018 335   164   163  25.4 0.682 127.7    2457    8824 0.278  0.25  0.92  0.26
 2018 336   165   164  24.6 0.685 128.1    2524    9053 0.279  0.25  0.82  0.31
 2018 337   166   165  25.5 0.688 128.5    2589    9278 0.279  0.26  0.93  0.36
 2018 338   167   166  25.1 0.691 128.8    2635    9434 0.279  0.26  0.89  0.38
 2018 339   168   167  25.3 0.693 129.2    2690    9624 0.280  0.26  0.91  0.41
 2018 340   169   168  24.1 0.696 129.5    2722    9731 0.280  0.27  0.76  0.43
 2018 341   170   169  23.8 0.698 129.7    2746    9810 0.280  0.27  0.72  0.45
 2018 342   171   170  26.0 0.701 130.1    2773    9903 0.280  0.27  0.99  0.46
 2018 343   172   171  25.0 0.703 130.3    2797    9988 0.280  0.27  0.87  0.48
 2018 344   173   172  24.2 0.705 130.6    2814   10045 0.280  0.27  0.78  0.49
 2018 345   174   173  25.4 0.708 130.9    2845   10150 0.280  0.27  0.93  0.50
 2018 346   175   174  25.5 0.710 131.2    2867   10226 0.280  0.27  0.94  0.52
 2018 347   176   175  24.5 0.712 131.4    2886   10292 0.280  0.27  0.82  0.53
 2018 348   177   176  24.1 0.714 131.7    2903   10347 0.281  0.27  0.76  0.54
 2018 349   178   177  25.3 0.716 131.9    2927   10431 0.281  0.27  0.91  0.55
 2018 350   179   178  25.7 0.718 132.2    2945   10492 0.281  0.27  0.96  0.56
 2018 351   180   179  26.1 0.720 132.4    2968   10574 0.281  0.27  1.00  0.57
 2018 352   181   180  24.5 0.722 132.6    2996   10666 0.281  0.28  0.82  0.57
 2018 353   182   181  24.6 0.724 132.9    3015   10733 0.281  0.28  0.82  0.58
 2018 354   183   182  23.5 0.726 133.1    3026   10766 0.281  0.28  0.68  0.59
 2018 355   184   183  23.1 0.727 133.2    3044   10827 0.281  0.28  0.64  0.60
 2018 356   185   184  22.9 0.729 133.4    3052   10854 0.281  0.28  0.61  0.61
 2018 357   186   185  23.2 0.731 133.6    3063   10890 0.281  0.28  0.65  0.62
 2018 358   187   186  22.6 0.733 133.8    3071   10915 0.281  0.28  0.58  0.62
 2018 359   188   187  22.8 0.734 133.9    3079   10941 0.281  0.28  0.60  0.63
 2018 360   189   188  23.0 0.736 134.1    3086   10964 0.281  0.28  0.62  0.64
 2018 361   190   189  23.0 0.738 134.2    3098   11004 0.282  0.28  0.63  0.64
 2018 362   191   190  24.0 0.739 134.4    3107   11032 0.282  0.28  0.74  0.65
 2018 363   192   191  24.6 0.741 134.6    3117   11065 0.282  0.28  0.83  0.66
 2018 364   193   192  23.5 0.742 134.7    3126   11097 0.282  0.28  0.69  0.66
 2018 365   194   193  25.1 0.744 134.9    3137   11134 0.282  0.28  0.89  0.67
 2019   1   195   194  24.3 0.745 135.1    3146   11165 0.282  0.28  0.79  0.68
 2019   2   196   195  23.1 0.747 135.2    3160   11210 0.282  0.28  0.64  0.68
 2019   3   197   196  23.4 0.748 135.4    3168   11237 0.282  0.28  0.68  0.69
 2019   4   198   197  24.0 0.749 135.5    3175   11260 0.282  0.28  0.74  0.70
 2019   5   199   198  24.0 0.751 135.7    3187   11299 0.282  0.28  0.75  0.70
 2019   6   200   199  24.0 0.752 135.8    3198   11335 0.282  0.28  0.74  0.71
 2019   7   201   200  25.1 0.753 136.0    3209   11372 0.282  0.28  0.89  0.71
 2019   8   202   201  23.7 0.755 136.1    3217   11401 0.282  0.28  0.71  0.72
 2019   9   203   202  22.8 0.756 136.2    3226   11428 0.282  0.28  0.59  0.72
 2019  10   204   203  24.8 0.757 136.4    3235   11460 0.282  0.28  0.85  0.73
 2019  11   205   204  25.0 0.758 136.5    3249   11507 0.282  0.28  0.87  0.73
 2019  12   206   205  24.3 0.760 136.6    3260   11542 0.282  0.28  0.79  0.73
 2019  13   207   206  25.2 0.761 136.8    3284   11624 0.282  0.29  0.89  0.74
 2019  14   208   207  25.8 0.762 136.9    3306   11701 0.283  0.29  0.98  0.74
 2019  15   209   208  26.7 0.763 137.1    3332   11791 0.283  0.29  1.00  0.74
 2019  16   210   209  25.8 0.764 137.2    3358   11881 0.283  0.29  0.98  0.75
 2019  17   211   210  26.7 0.765 137.4    3384   11972 0.283  0.29  1.00  0.75
 2019  18   212   211  25.9 0.766 137.5    3412   12067 0.283  0.29  0.98  0.76
 2019  19   213   212  26.0 0.767 137.6    3435   12147 0.283  0.30  1.00  0.76
 2019  20   214   213  26.8 0.768 137.8    3462   12241 0.283  0.30  1.00  0.76
 2019  21   215   214  26.5 0.769 137.9    3488   12332 0.283  0.30  1.00  0.76
 2019  22   216   215  25.9 0.771 138.1    3523   12454 0.283  0.30  0.98  0.67
 2019  23   217   216  26.5 0.772 138.3    3567   12606 0.283  0.31  1.00  0.64
 2019  24   218   217  25.8 0.774 138.6    3604   12733 0.283  0.31  0.97  0.55
 2019  25   219   218  26.5 0.777 138.9    3691   13033 0.283  0.31  1.00  0.38
 2019  26   220   219  26.8 0.780 139.4    3761   13276 0.283  0.32  1.00  0.29
 2019  27   221   220  26.5 0.783 139.8    3824   13493 0.283  0.32  1.00  0.27
 2019  28   222   221  26.2 0.786 140.3    3883   13696 0.283  0.33  1.00  0.28
 2019  29   223   222  26.5 0.789 140.9    3949   13926 0.284  0.33  1.00  0.28
 2019  30   224   223  27.0 0.792 141.5    4005   14119 0.284  0.33  1.00  0.24
 2019  31   225   224  26.8 0.795 142.2    4068   14335 0.284  0.34  1.00  0.22
 2019  32   226   225  25.8 0.798 142.8    4125   14531 0.284  0.34  0.97  0.21
 2019  33   227   226  24.5 0.802 143.3    4178   14708 0.284  0.34  0.81  0.22
 2019  34   228   227  26.0 0.805 143.9    4222   14860 0.284  0.34  0.99  0.22
 2019  35   229   228  25.3 0.809 144.3    4286   15077 0.284  0.35  0.91  0.25
 2019  36   230   229  25.6 0.812 144.7    4354   15309 0.284  0.35  0.95  0.28
 2019  37   231   230  26.5 0.815 145.0    4395   15449 0.284  0.35  1.00  0.33
 2019  38   232   231  26.6 0.817 145.4    4435   15587 0.285  0.36  1.00  0.37
 2019  39   233   232  27.0 0.820 145.7    4469   15704 0.285  0.36  1.00  0.39
 2019  40   234   233  26.0 0.822 146.0    4508   15838 0.285  0.36  0.99  0.44
 2019  41   235   234  25.0 0.824 146.3    4546   15967 0.285  0.36  0.88  0.50
 2019  42   236   235  25.5 0.826 146.5    4571   16051 0.285  0.36  0.93  0.54
 2019  43   237   236  24.5 0.828 146.7    4585   16097 0.285  0.36  0.82  0.57
 2019  44   238   237  24.9 0.830 146.9    4600   16149 0.285  0.36  0.86  0.59
 2019  45   239   238  25.6 0.832 147.1    4618   16211 0.285  0.37  0.95  0.61
 2019  46   240   239  25.8 0.834 147.3    4637   16276 0.285  0.37  0.98  0.62
 2019  47   241   240  24.1 0.835 147.5    4649   16313 0.285  0.37  0.76  0.63
 2019  48   242   241  24.8 0.837 147.7    4664   16364 0.285  0.37  0.85  0.64
 2019  49   243   242  25.2 0.838 147.8    4688   16444 0.285  0.37  0.91  0.65
 2019  50   244   243  26.5 0.840 148.0    4701   16490 0.285  0.37  1.00  0.66
 2019  51   245   244  25.8 0.841 148.2    4722   16562 0.285  0.37  0.97  0.67
 2019  52   246   245  26.1 0.843 148.4    4740   16624 0.285  0.37  1.00  0.68
 2019  53   247   246  26.0 0.844 148.5    4757   16681 0.285  0.37  1.00  0.66
 2019  54   248   247  26.0 0.846 148.7    4778   16753 0.285  0.37  1.00  0.62
 2019  55   249   248  26.2 0.848 149.0    4778   16753 0.285  0.37  1.00  0.54
 2019  56   250   249  25.9 0.850 149.2    4827   16921 0.285  0.38  0.98  0.51
 2019  57   251   250  25.9 0.852 149.5    4824   16921 0.285  0.38  0.99  0.49
 2019  58   252   251  25.9 0.854 149.8    4854   17026 0.285  0.38  0.99  0.48
 2019  59   253   252  25.4 0.857 150.0    4888   17140 0.285  0.38  0.92  0.48
 2019  60   254   253  25.2 0.859 150.3    4908   17207 0.285  0.38  0.90  0.46
 2019  61   255   254  26.5 0.861 150.6    4946   17338 0.285  0.38  1.00  0.45
 2019  62   256   255  25.8 0.864 150.9    4980   17451 0.285  0.38  0.97  0.47
 2019  63   257   256  25.4 0.866 151.2    5000   17519 0.285  0.38  0.93  0.52
 2019  64   258   257  26.2 0.868 151.5    5023   17598 0.285  0.38  1.00  0.54
 2019  65   259   258  26.3 0.870 151.7    5024   17600 0.285  0.38  1.00  0.56
 2019  66   260   259  26.5 0.871 152.0    5045   17672 0.285  0.38  1.00  0.56
 2019  67   261   260  26.1 0.873 152.2    5054   17704 0.285  0.38  1.00  0.58
[...]
 2019 333   160   159  21.9 0.656 118.3    2940   10641 0.276  0.25  0.49  0.52
 2019 334   161   160  22.4 0.658 118.5    2947   10663 0.276  0.25  0.55  0.53
 2019 335   162   161  21.8 0.660 118.7    2959   10702 0.276  0.25  0.48  0.54
 2019 336   163   162  21.5 0.662 118.9    2960   10707 0.276  0.25  0.44  0.55
 2019 337   164   163  20.7 0.664 119.1    2975   10753 0.277  0.25  0.34  0.57
 2019 338   165   164  20.9 0.665 119.2    2983   10779 0.277  0.25  0.36  0.58
 2019 339   166   165  21.1 0.666 119.4    2994   10814 0.277  0.25  0.39  0.59
 2019 340   167   166  20.7 0.668 119.6    3004   10844 0.277  0.25  0.34  0.60
 2019 341   168   167  20.3 0.669 119.7    3009   10861 0.277  0.25  0.29  0.61
 2019 342   169   168  20.5 0.671 119.9    3013   10874 0.277  0.25  0.31  0.62
 2019 343   170   169  20.5 0.672 120.0    3022   10902 0.277  0.25  0.32  0.62
 2019 344   171   170  20.5 0.673 120.1    3033   10937 0.277  0.25  0.31  0.63
 2019 345   172   171  19.9 0.674 120.3    3046   10976 0.277  0.25  0.24  0.64
 2019 346   173   172  19.9 0.675 120.4    3061   11022 0.278  0.25  0.24  0.65
 2019 347   174   173  20.1 0.676 120.5    3076   11070 0.278  0.25  0.26  0.66
 2019 348   175   174  19.8 0.677 120.6    3089   11110 0.278  0.25  0.22  0.66
 2019 349   176   175  20.6 0.678 120.7    3105   11162 0.278  0.26  0.33  0.67
 2019 350   177   176  21.1 0.679 120.9    3118   11201 0.278  0.26  0.39  0.68
 2019 351   178   177  21.2 0.680 121.0    3127   11230 0.278  0.26  0.41  0.69
 2019 352   179   178  22.5 0.681 121.1    3134   11252 0.278  0.26  0.56  0.69
 2019 353   180   179  22.0 0.682 121.3    3145   11290 0.279  0.26  0.51  0.70
 2019 354   181   180  19.9 0.684 121.4    3153   11313 0.279  0.26  0.24  0.71
 2019 355   182   181  20.2 0.685 121.5    3160   11336 0.279  0.26  0.28  0.71
 2019 356   183   182  19.9 0.685 121.6    3166   11355 0.279  0.26  0.24  0.72
 2019 357   184   183  19.5 0.686 121.7    3173   11376 0.279  0.26  0.18  0.73
 2019 358   185   184  19.5 0.687 121.7    3178   11390 0.279  0.26  0.19  0.73
 2019 359   186   185  20.0 0.687 121.8    3181   11402 0.279  0.26  0.26  0.74
 2019 360   187   186  19.5 0.688 121.9    3181   11402 0.279  0.26  0.19  0.74
 2019 361   188   187  19.8 0.689 122.0    3186   11418 0.279  0.26  0.22  0.75
 2019 362   189   188  19.3 0.689 122.1    3191   11433 0.279  0.26  0.16  0.76
 2019 363   190   189  19.0 0.690 122.1    3198   11454 0.279  0.26  0.12  0.76
 2019 364   191   190  18.5 0.690 122.2    3204   11471 0.279  0.26  0.06  0.76
 2019 365   192   191  18.9 0.690 122.3    3209   11489 0.279  0.26  0.11  0.77
 2020   1   193   192  18.2 0.691 122.3    3217   11512 0.279  0.26  0.03  0.77
 2020   2   194   193  15.6 0.691 122.4    3225   11536 0.280  0.26  0.00  0.78
 2020   3   195   194  16.4 0.691 122.4    3229   11547 0.280  0.26  0.00  0.78
 2020   4   196   195  17.1 0.691 122.4    3235   11566 0.280  0.26  0.00  0.78
 2020   5   197   196  19.0 0.691 122.5    3239   11578 0.280  0.26  0.12  0.79
 2020   6   198   197  21.5 0.691 122.6    3243   11590 0.280  0.26  0.44  0.79
 2020   7   199   198  21.6 0.692 122.7    3245   11598 0.280  0.26  0.46  0.80
 2020   8   200   199  21.9 0.693 122.8    3246   11601 0.280  0.26  0.48  0.80
 2020   9   201   200  21.8 0.694 122.8    3248   11606 0.280  0.26  0.47  0.80
 2020  10   202   201  23.2 0.695 122.9    3249   11611 0.280  0.26  0.66  0.80
 2020  11   203   202  23.0 0.696 123.0    3252   11621 0.280  0.26  0.62  0.81
 2020  12   204   203  23.0 0.697 123.1    3252   11621 0.280  0.26  0.62  0.81
 2020  13   205   204  24.3 0.697 123.2    3255   11631 0.280  0.26  0.79  0.81
 2020  14   206   205  25.4 0.698 123.3    3259   11644 0.280  0.26  0.92  0.82
 2020  15   207   206  22.3 0.699 123.4    3265   11663 0.280  0.26  0.54  0.82
 2020  16   208   207  20.4 0.700 123.5    3270   11678 0.280  0.26  0.30  0.82
 2020  17   209   208  20.1 0.700 123.5    3275   11696 0.280  0.26  0.27  0.83
 2020  18   210   209  20.1 0.701 123.6    3280   11711 0.280  0.26  0.27  0.83
 2020  19   211   210  20.5 0.701 123.7    3285   11728 0.280  0.26  0.31  0.83
 2020  20   212   211  22.1 0.702 123.7    3289   11739 0.280  0.26  0.52  0.83
 2020  21   213   212  22.9 0.703 123.8    3292   11750 0.280  0.26  0.61  0.84
 2020  22   214   213  22.0 0.703 123.9    3296   11763 0.280  0.26  0.49  0.84
 2020  23   215   214  20.8 0.704 123.9    3303   11784 0.280  0.26  0.34  0.84
 2020  24   216   215  19.9 0.705 124.0    3309   11803 0.280  0.26  0.24  0.85
 2020  25   217   216  19.0 0.705 124.0    3316   11823 0.280  0.26  0.12  0.85
 2020  26   218   217  19.0 0.705 124.1    3323   11844 0.281  0.27  0.12  0.85
 2020  27   219   218  19.9 0.706 124.1    3331   11869 0.281  0.27  0.23  0.86
 2020  28   220   219  20.6 0.706 124.2    3334   11880 0.281  0.27  0.33  0.86
 2020  29   221   220  20.6 0.706 124.2    3339   11894 0.281  0.27  0.33  0.86
 2020  30   222   221  21.0 0.707 124.3    3342   11905 0.281  0.27  0.37  0.86
 2020  31   223   222  21.3 0.707 124.3    3348   11925 0.281  0.27  0.42  0.87
 2020  32   224   223  20.9 0.708 124.4    3356   11950 0.281  0.27  0.36  0.87
 2020  33   225   224  21.4 0.708 124.4    3366   11979 0.281  0.27  0.42  0.87
 2020  34   226   225  21.0 0.709 124.5    3375   12010 0.281  0.27  0.38  0.87
 2020  35   227   226  21.4 0.709 124.5    3385   12040 0.281  0.27  0.42  0.88
 2020  36   228   227  21.1 0.710 124.6    3401   12093 0.281  0.27  0.39  0.88
 2020  37   229   228  21.5 0.710 124.6    3419   12151 0.281  0.27  0.43  0.88
 2020  38   230   229  22.6 0.711 124.7    3433   12197 0.282  0.27  0.58  0.88
 2020  39   231   230  22.9 0.711 124.7    3446   12237 0.282  0.28  0.61  0.88
 2020  40   232   231  23.8 0.712 124.8    3463   12294 0.282  0.28  0.73  0.89
 2020  41   233   232  23.8 0.712 124.9    3484   12367 0.282  0.28  0.73  0.89
 2020  42   234   233  22.4 0.713 124.9    3497   12409 0.282  0.28  0.54  0.89
 2020  43   235   234  20.1 0.713 124.9    3514   12459 0.282  0.28  0.26  0.89
 2020  44   236   235  20.6 0.713 125.0    3531   12514 0.282  0.28  0.33  0.89
 2020  45   237   236  22.4 0.714 125.0    3551   12580 0.282  0.29  0.55  0.90
 2020  46   238   237  22.6 0.714 125.1    3566   12627 0.282  0.29  0.58  0.90
 2020  47   239   238  23.5 0.715 125.1    3586   12694 0.282  0.29  0.68  0.90
 2020  48   240   239  23.2 0.715 125.2    3611   12776 0.283  0.29  0.65  0.90
 2020  49   241   240  23.3 0.716 125.2    3633   12850 0.283  0.29  0.66  0.90
 2020  50   242   241  23.5 0.716 125.3    3658   12933 0.283  0.30  0.68  0.90
 2020  51   243   242  24.0 0.716 125.3    3683   13017 0.283  0.30  0.74  0.91
 2020  52   244   243  25.4 0.717 125.4    3710   13111 0.283  0.30  0.93  0.91
 2020  53   245   244  25.7 0.717 125.4    3736   13201 0.283  0.30  0.96  0.91
 2020  54   246   245  24.6 0.718 125.5    3759   13277 0.283  0.31  0.83  0.91
 2020  55   247   246  23.4 0.718 125.5    3781   13353 0.283  0.31  0.67  0.91
 2020  56   248   247  23.1 0.718 125.6    3795   13399 0.283  0.31  0.64  0.91
 2020  57   249   248  23.1 0.719 125.6    3811   13450 0.283  0.31  0.64  0.92
 2020  58   250   249  25.4 0.719 125.7    3830   13517 0.283  0.31  0.93  0.92
 2020  59   251   250  25.4 0.720 125.7    3847   13574 0.283  0.32  0.92  0.92
 2020  60   252   251  28.0 0.720 125.8    3865   13639 0.283  0.32  1.00  0.92
 2020  61   253   252  28.1 0.720 125.8    3884   13707 0.283  0.32  1.00  0.92
 2020  62   254   253  27.8 0.721 125.9    3903   13773 0.283  0.32  1.00  0.92
 2020  63   255   254  27.2 0.721 125.9    3917   13820 0.283  0.32  1.00  0.92
 2020  64   256   255  27.4 0.721 126.0    3927   13855 0.283  0.32  1.00  0.93
 2020  65   257   256  27.3 0.721 126.0    3936   13888 0.283  0.33  1.00  0.93
 2020  66   258   257  26.5 0.722 126.1    3946   13921 0.283  0.33  1.00  0.93
 2020  67   259   258  27.6 0.722 126.1    3949   13932 0.283  0.33  1.00  0.93
 2020  68   260   259  27.5 0.722 126.2    3958   13963 0.283  0.33  1.00  0.93
 2020  69   261   260  28.3 0.723 126.2    3962   13978 0.283  0.33  1.00  0.93
 2020  70   262   261  27.8 0.723 126.3    3965   13991 0.283  0.33  1.00  0.93
 2020  71   263   262  28.0 0.723 126.3    3970   14006 0.283  0.33  1.00  0.93
 2020  72   264   263  25.5 0.723 126.4    3971   14010 0.283  0.33  0.94  0.93
 2020  73   265   264  24.4 0.724 126.4    3968   14010 0.283  0.33  0.80  0.93
 2020  74   266   265  24.8 0.724 126.4    3964   14010 0.283  0.33  0.85  0.93
 2020  75   267   266  25.5 0.724 126.5    3963   14010 0.283  0.33  0.94  0.93
 2020  76   268   267  26.1 0.725 126.5    3959   14010 0.283  0.33  1.00  0.94
 2020  77   269   268  26.9 0.725 126.6    3960   14015 0.283  0.33  1.00  0.94
 2020  78   270   269  27.5 0.725 126.6    3957   14015 0.282  0.33  1.00  0.94
 2020  79   271   270  28.5 0.725 126.6    3958   14015 0.282  0.33  1.00  0.94
 2020  80   272   271  29.0 0.726 126.7    3954   14015 0.282  0.33  1.00  0.94
 2020  81   273   272  28.9 0.726 126.7    3954   14016 0.282  0.33  1.00  0.94
 2020  82   274   273  29.7 0.726 126.8    3953   14016 0.282  0.33  1.00  0.94
 2020  83   275   274  29.4 0.726 126.8    3955   14023 0.282  0.33  1.00  0.94
 2020  84   276   275  25.5 0.726 126.9    3953   14023 0.282  0.33  0.94  0.94
 2020  85   277   276  25.8 0.729 127.2    3967   14072 0.282  0.33  0.97  0.47
 2020  86   278   277  27.0 0.731 127.6    3986   14138 0.282  0.33  1.00  0.37
 2020  87   279   278  28.3 0.734 128.1    3993   14161 0.282  0.33  1.00  0.29
 2020  88   280   279  29.1 0.737 128.7    3994   14165 0.282  0.33  1.00  0.29
 2020  89   281   280  28.0 0.739 129.3    3991   14165 0.282  0.33  1.00  0.35
 2020  90   282   281  28.6 0.742 130.1    3988   14165 0.281  0.33  1.00  0.35
 2020  91   283   282  25.6 0.744 130.6    3993   14185 0.282  0.33  0.95  0.37
 2020  92   284   283  26.5 0.747 131.4    3997   14198 0.282  0.33  1.00  0.22
 2020  93   285   284  26.0 0.751 132.1    3996   14198 0.281  0.33  0.99  0.17
 2020  94   286   285  27.5 0.755 133.0    4003   14222 0.281  0.33  1.00  0.12
 2020  95   287   286  27.7 0.758 133.9    3995   14222 0.281  0.33  1.00  0.13
 2020  96   288   287  27.4 0.761 134.7    3991   14222 0.281  0.33  1.00  0.17
 2020  97   289   288  27.4 0.764 135.5    3993   14227 0.281  0.33  1.00  0.19
 2020  98   290   289  25.9 0.768 136.2    3994   14230 0.281  0.33  0.98  0.15
 2020  99   291   290  25.3 0.772 136.7    3986   14230 0.280  0.33  0.92  0.08
 2020 100   292   291  24.2 0.776 137.2    3983   14230 0.280  0.33  0.78  0.04
 2020 101   293   292  25.2 0.781 137.7    3971   14230 0.279  0.33  0.91  0.00
 2020 102   294   293  24.9 0.785 138.3    3962   14230 0.278  0.32  0.86  0.00
 2020 103   295   294  24.5 0.790 138.8    3957   14230 0.278  0.32  0.81  0.00
 2020 104   296   295  25.5 0.794 139.3    3948   14230 0.277  0.32  0.94  0.00
 2020 105   297   296  25.5 0.799 139.9    3941   14230 0.277  0.32  0.94  0.00
 2020 106   298   297  26.0 0.803 140.4    3930   14230 0.276  0.32  1.00  0.00
 2020 107   299   298  27.2 0.807 141.1    3919   14230 0.275  0.32  1.00  0.00
 2020 108   300   299  26.8 0.811 141.6    3907   14230 0.275  0.32  1.00  0.00
 2020 109   301   300  25.8 0.815 142.2    3900   14230 0.274  0.32  0.98  0.00
 2020 110   302   301  27.7 0.820 142.8    3898   14230 0.274  0.32  1.00  0.00
 2020 111   303   302  27.2 0.824 143.4    3896   14230 0.274  0.32  1.00  0.00
 2020 112   304   303  27.2 0.828 144.0    3898   14237 0.274  0.32  1.00  0.00
 2020 113   305   304  27.1 0.831 144.6    3901   14246 0.274  0.32  1.00  0.00
 2020 114   306   305  27.7 0.835 145.2    3900   14246 0.274  0.31  1.00  0.00
 2020 115   307   306  27.1 0.839 145.8    3905   14263 0.274  0.31  1.00  0.00
 2020 116   308   307  27.8 0.843 146.4    3908   14274 0.274  0.31  1.00  0.00
 2020 117   309   308  26.5 0.847 147.0    3918   14308 0.274  0.31  1.00  0.00
 2020 118   310   309  25.3 0.851 147.5    3937   14372 0.274  0.31  0.91  0.00
 2020 119   311   310  26.2 0.856 148.1    3952   14423 0.274  0.32  1.00  0.00
 2020 120   312   311  26.0 0.860 148.6    3965   14468 0.274  0.32  0.99  0.00
 2020 121   313   312  25.5 0.864 149.1    3977   14509 0.274  0.32  0.94  0.00
 2020 122   314   313  25.7 0.869 149.6    3996   14574 0.274  0.32  0.96  0.00
 2020 123   315   314  25.7 0.873 150.1    4011   14626 0.274  0.32  0.96  0.00
 2020 124   316   315  25.8 0.878 150.6    4026   14675 0.274  0.32  0.97  0.00
 2020 125   317   316  25.5 0.882 151.1    4043   14734 0.274  0.32  0.94  0.00
 2020 126   318   317  27.3 0.886 151.7    4043   14734 0.274  0.32  1.00  0.00
 2020 127   319   318  27.0 0.890 152.3    4049   14754 0.274  0.32  1.00  0.00
 2020 128   320   319  27.7 0.894 152.8    4043   14754 0.274  0.32  1.00  0.00
 2020 129   321   320  27.7 0.898 153.4    4049   14775 0.274  0.32  1.00  0.00
 2020 130   322   321  26.5 0.902 153.9    4053   14786 0.274  0.31  1.00  0.00
 2020 131   323   322  26.3 0.906 154.5    4070   14845 0.274  0.32  1.00  0.00
 2020 132   324   323  25.8 0.910 154.9    4079   14877 0.274  0.32  0.97  0.00
 2020 133   325   324  26.2 0.915 155.5    4095   14932 0.274  0.32  1.00  0.00
 2020 134   326   325  27.4 0.919 156.0    4103   14958 0.274  0.32  1.00  0.00
 2020 135   327   326  27.2 0.923 156.6    4114   14996 0.274  0.32  1.00  0.00
 2020 136   328   327  26.2 0.927 157.1    4122   15024 0.274  0.32  1.00  0.00
 2020 137   329   328  26.0 0.931 157.5    4150   15116 0.275  0.32  1.00  0.00
 2020 138   330   329  25.9 0.935 158.0    4170   15186 0.275  0.32  0.99  0.00
 2020 139   331   330  26.7 0.940 158.5    4188   15247 0.275  0.32  1.00  0.00
 2020 140   332   331  26.2 0.944 159.0    4193   15263 0.275  0.32  1.00  0.00
 2020 141   333   332  25.8 0.948 159.5    4219   15351 0.275  0.32  0.97  0.00
 2020 142   334   333  25.4 0.952 160.0    4240   15420 0.275  0.32  0.92  0.00
 2020 143   335   334  26.0 0.957 160.5    4253   15464 0.275  0.32  1.00  0.00
 2020 144   336   335  25.3 0.961 160.9    4278   15547 0.275  0.32  0.91  0.00
 2020 145   337   336  24.7 0.966 161.3    4285   15570 0.275  0.32  0.83  0.00
 2020 146   338   337  25.0 0.970 161.8    4313   15664 0.275  0.32  0.88  0.00
 2020 147   339   338  25.6 0.975 162.2    4338   15749 0.275  0.32  0.95  0.00
 2020 148   340   339  25.3 0.979 162.7    4345   15772 0.276  0.32  0.91  0.00
 2020 149   341   340  25.9 0.984 163.1    4371   15857 0.276  0.32  0.98  0.00
 2020 150   342   341  26.7 0.988 163.6    4386   15907 0.276  0.32  1.00  0.00
 2020 151   343   342  26.0     1 164.1    4412   15997 0.276  0.32  1.00  0.00
 2020 152   344   343  26.0     1 164.6    4433   16066 0.276  0.32  1.00  0.00
 2020 153   345   344  25.6 1.001 165.0    4457   16147 0.276  0.32  0.96  0.00
 2020 154   346   345  26.5 1.005 165.5    4479   16220 0.276  0.33  1.00  0.00
 2020 155   347   346  26.5 1.008 166.0    4506   16312 0.276  0.33  1.00  0.00
 2020 156   348   347  25.2 1.011 166.4    4516   16346 0.276  0.33  0.90  0.00
 2020 157   349   348  25.9 1.015 166.8    4535   16408 0.276  0.33  0.98  0.00
 2020 158   350   349  25.0 1.019 167.3    4547   16448 0.276  0.33  0.88  0.00
 2020 159   351   350  26.5 1.022 167.7    4579   16555 0.277  0.33  1.00  0.00
 2020 160   352   351  27.0 1.026 168.2    4591   16597 0.277  0.33  1.00  0.00
 2020 161   353   352  24.4 1.029 168.6    4604   16639 0.277  0.33  0.79  0.00
 2020 162   354   353  24.5 1.032 169.0    4644   16767 0.277  0.33  0.81  0.00
 2020 163   355   354  24.8 1.036 169.4    4667   16843 0.277  0.33  0.84  0.00
 2020 164   356   355  25.9 1.040 169.8    4672   16858 0.277  0.33  0.99  0.00
 2020 165   357   356  24.2 1.043 170.2    4713   16992 0.277  0.33  0.78  0.00
 2020 166   358   357  25.7 1.047 170.6    4742   17088 0.278  0.33  0.96  0.00
 2020 167   359   358  25.6 1.050 171.1    4769   17176 0.278  0.33  0.95  0.00
 2020 168   360   359  25.9 1.054 171.5    4801   17282 0.278  0.33  0.99  0.00
 2020 169   361   360  25.3 1.057 171.9    4827   17370 0.278  0.33  0.91  0.00
 2020 170   362   361  24.1 1.061 172.3    4852   17449 0.278  0.33  0.77  0.00
 2020 171   363   362  24.3 1.065 172.6    4887   17564 0.278  0.34  0.79  0.00
 2020 172   364   363  25.5 1.068 173.1    4917   17662 0.278  0.34  0.94  0.00
 2020 173   365   364  25.4 1.072 173.5    4945   17752 0.279  0.34  0.92  0.00
 2020 174   366   365  24.5 1.075 173.8    4967   17823 0.279  0.34  0.82  0.00
 2020 175   367   366  24.9 1.079 174.2    5011   17969 0.279  0.34  0.86  0.00
 2020 176   368   367  25.8 1.083 174.6    5040   18064 0.279  0.34  0.97  0.00
 2020 177   369   368  25.5 1.086 175.1    5070   18164 0.279  0.34  0.94  0.00
 2020 178   370   369  25.0 1.090 175.4    5098   18253 0.279  0.34  0.88  0.00
 2020 179   371   370  24.3 1.093 175.8    5146   18409 0.280  0.34  0.79  0.00
 2020 180   372   371  24.0 1.097 176.2    5157   18443 0.280  0.34  0.75  0.00
 2020 181   373   372  24.3 1.101 176.5    5178   18510 0.280  0.34  0.79  0.00
 2020 182   374   373  24.9 1.104 176.9    5206   18602 0.280  0.34  0.86  0.00
 2020 183   375   374  25.0 1.108 177.3    5246   18734 0.280  0.35  0.88  0.00
 2020 184   376   375  25.4 1.112 177.7    5292   18886 0.280  0.35  0.92  0.00
 2020 185   377   376  25.4 1.115 178.1    5314   18957 0.280  0.35  0.92  0.00
 2020 186   378   377  23.7 1.119 178.4    5319   18974 0.280  0.35  0.71  0.00
 2020 187   379   378  23.7 1.122 178.7    5374   19148 0.281  0.35  0.71  0.00
 2020 188   380   379  24.5 1.126 179.1    5405   19249 0.281  0.35  0.81  0.00
 2020 189   381   380  24.2 1.130 179.4    5438   19356 0.281  0.35  0.77  0.00
 2020 190   382   381  24.6 1.133 179.8    5494   19537 0.281  0.35  0.83  0.00
 2020 191   383   382  24.7 1.137 180.2    5530   19652 0.281  0.35  0.83  0.00
 2020 192   384   383  23.2 1.141 180.5    5559   19744 0.282  0.35  0.64  0.00
 2020 193   385   384  24.1 1.144 180.8    5604   19889 0.282  0.36  0.76  0.00
 2020 194   386   385  23.6 1.148 181.1    5600   19889 0.282  0.36  0.70  0.00
 2020 195   387   386  24.0 1.152 181.5    5653   20057 0.282  0.36  0.74  0.00
 2020 196   388   387  23.3 1.155 181.8    5682   20147 0.282  0.36  0.66  0.00
 2020 197   389   388  23.5 1.159 182.1    5702   20211 0.282  0.36  0.69  0.00
 2020 198   390   389  23.1 1.163 182.4    5742   20336 0.282  0.36  0.64  0.00
 2020 199   391   390  22.5 1.166 182.7    5779   20451 0.283  0.36  0.56  0.00
 2020 200   392   391  22.9 1.170 183.0    5816   20567 0.283  0.36  0.61  0.00
 2020 201   393   392  23.4 1.174 183.3    5852   20683 0.283  0.36  0.67  0.00
 2020 202   394   393  23.4 1.177 183.6    5896   20822 0.283  0.36  0.67  0.00
 2020 203   395   394  23.1 1.181 183.9    5944   20971 0.283  0.37  0.64  0.00
 2020 204   396   395  23.5 1.185 184.2    5977   21076 0.284  0.37  0.68  0.00
 2020 205   397   396  23.1 1.188 184.5    6030   21242 0.284  0.37  0.64  0.00
 2020 206   398   397  22.8 1.192 184.8    6055   21320 0.284  0.37  0.59  0.00
 2020 207   399   398  24.0 1.195 185.1    6097   21454 0.284  0.37  0.74  0.00
 2020 208   400   399  24.2 1.199 185.5    6138   21587 0.284  0.37  0.78  0.00
 2020 209   401   400  23.6 1.203 185.8    6149   21622 0.284  0.37  0.70  0.00
 2020 210   402   401  24.2 1.206 186.1    6221   21854 0.285  0.37  0.77  0.00
 2020 211   403   402  24.0 1.210 186.4    6271   22015 0.285  0.37  0.74  0.00
 2020 212   404   403  23.6 1.214 186.7    6293   22082 0.285  0.38  0.71  0.00
 2020 213   405   404  22.8 1.217 187.0    6346   22249 0.285  0.38  0.61  0.00
 2020 214   406   405  23.6 1.221 187.3    6378   22352 0.285  0.38  0.70  0.00
 2020 215   407   406  24.0 1.225 187.6    6428   22510 0.286  0.38  0.74  0.00
 2020 216   408   407  22.7 1.228 187.9    6412   22510 0.285  0.38  0.58  0.00
