*MANAGEMENT OPERATIONS DAILY OUTPUT FILE

*DSSAT Cropping System Model Ver. 4.8.0.019 -develop  APR 08, 2023 12:34:37

*RUN   1        : IITA-TMS-IBA000070        CSYCA048 UYAB1901    1
 MODEL          : CSYCA048 - Cassava
 EXPERIMENT     : UYAB1901 CS UYT_GXE
 DATA PATH      :
 TREATMENT  1   : IITA-TMS-IBA000070        CSYCA048
  

@YEAR DOY   DAS   DAP  TL#C  TLDD DLYR3   TLBD  R#AC RESNC RESPC
 2019 168     1     0     0     0    30  1.238     0     0     0
 2019 169     2     0     0     0    30  1.238     0     0     0
 2019 170     3     1     0     0    30  1.238     0     0     0
 2019 171     4     2     0     0    30  1.238     0     0     0
 2019 172     5     3     0     0    30  1.238     0     0     0
 2019 173     6     4     0     0    30  1.238     0     0     0
 2019 174     7     5     0     0    30  1.238     0     0     0
 2019 175     8     6     0     0    30  1.238     0     0     0
 2019 176     9     7     0     0    30  1.238     0     0     0
 2019 177    10     8     0     0    30  1.238     0     0     0
 2019 178    11     9     0     0    30  1.238     0     0     0
 2019 179    12    10     0     0    30  1.238     0     0     0
 2019 180    13    11     0     0    30  1.238     0     0     0
 2019 181    14    12     0     0    30  1.238     0     0     0
 2019 182    15    13     0     0    30  1.238     0     0     0
 2019 183    16    14     0     0    30  1.238     0     0     0
 2019 184    17    15     0     0    30  1.238     0     0     0
 2019 185    18    16     0     0    30  1.238     0     0     0
 2019 186    19    17     0     0    30  1.238     0     0     0
 2019 187    20    18     0     0    30  1.238     0     0     0
 2019 188    21    19     0     0    30  1.238     0     0     0
 2019 189    22    20     0     0    30  1.238     0     0     0
 2019 190    23    21     0     0    30  1.238     0     0     0
 2019 191    24    22     0     0    30  1.238     0     0     0
 2019 192    25    23     0     0    30  1.238     0     0     0
 2019 193    26    24     0     0    30  1.238     0     0     0
 2019 194    27    25     0     0    30  1.238     0     0     0
 2019 195    28    26     0     0    30  1.238     0     0     0
 2019 196    29    27     0     0    30  1.238     0     0     0
 2019 197    30    28     0     0    30  1.238     0     0     0
 2019 198    31    29     0     0    30  1.238     0     0     0
 2019 199    32    30     0     0    30  1.238     0     0     0
 2019 200    33    31     0     0    30  1.238     0     0     0
 2019 201    34    32     0     0    30  1.238     0     0     0
 2019 202    35    33     0     0    30  1.238     0     0     0
 2019 203    36    34     0     0    30  1.238     0     0     0
 2019 204    37    35     0     0    30  1.238     0     0     0
 2019 205    38    36     0     0    30  1.238     0     0     0
 2019 206    39    37     0     0    30  1.238     0     0     0
 2019 207    40    38     0     0    30  1.238     0     0     0
 2019 208    41    39     0     0    30  1.238     0     0     0
 2019 209    42    40     0     0    30  1.238     0     0     0
 2019 210    43    41     0     0    30  1.238     0     0     0
 2019 211    44    42     0     0    30  1.238     0     0     0
 2019 212    45    43     0     0    30  1.238     0     0     0
 2019 213    46    44     0     0    30  1.238     0     0     0
 2019 214    47    45     0     0    30  1.238     0     0     0
 2019 215    48    46     0     0    30  1.238     0     0     0
 2019 216    49    47     0     0    30  1.238     0     0     0
 2019 217    50    48     0     0    30  1.238     0     0     0
 2019 218    51    49     0     0    30  1.238     0     0     0
 2019 219    52    50     0     0    30  1.238     0     0     0
 2019 220    53    51     0     0    30  1.238     0     0     0
 2019 221    54    52     0     0    30  1.238     0     0     0
 2019 222    55    53     0     0    30  1.238     0     0     0
 2019 223    56    54     0     0    30  1.238     0     0     0
 2019 224    57    55     0     0    30  1.238     0     0     0
 2019 225    58    56     0     0    30  1.238     0     0     0
 2019 226    59    57     0     0    30  1.238     0     0     0
 2019 227    60    58     0     0    30  1.238     0     0     0
 2019 228    61    59     0     0    30  1.238     0     0     0
 2019 229    62    60     0     0    30  1.238     0     0     0
 2019 230    63    61     0     0    30  1.238     0     0     0
 2019 231    64    62     0     0    30  1.238     0     0     0
 2019 232    65    63     0     0    30  1.238     0     0     0
 2019 233    66    64     0     0    30  1.238     0     0     0
 2019 234    67    65     0     0    30  1.238     0     0     0
 2019 235    68    66     0     0    30  1.238     0     0     0
 2019 236    69    67     0     0    30  1.238     0     0     0
 2019 237    70    68     0     0    30  1.238     0     0     0
 2019 238    71    69     0     0    30  1.238     0     0     0
 2019 239    72    70     0     0    30  1.238     0     0     0
 2019 240    73    71     0     0    30  1.238     0     0     0
 2019 241    74    72     0     0    30  1.238     0     0     0
 2019 242    75    73     0     0    30  1.238     0     0     0
 2019 243    76    74     0     0    30  1.238     0     0     0
 2019 244    77    75     0     0    30  1.238     0     0     0
 2019 245    78    76     0     0    30  1.238     0     0     0
 2019 246    79    77     0     0    30  1.238     0     0     0
 2019 247    80    78     0     0    30  1.238     0     0     0
 2019 248    81    79     0     0    30  1.238     0     0     0
 2019 249    82    80     0     0    30  1.238     0     0     0
 2019 250    83    81     0     0    30  1.238     0     0     0
 2019 251    84    82     0     0    30  1.238     0     0     0
 2019 252    85    83     0     0    30  1.238     0     0     0
 2019 253    86    84     0     0    30  1.238     0     0     0
 2019 254    87    85     0     0    30  1.238     0     0     0
 2019 255    88    86     0     0    30  1.238     0     0     0
 2019 256    89    87     0     0    30  1.238     0     0     0
 2019 257    90    88     0     0    30  1.238     0     0     0
 2019 258    91    89     0     0    30  1.238     0     0     0
 2019 259    92    90     0     0    30  1.238     0     0     0
 2019 260    93    91     0     0    30  1.238     0     0     0
 2019 261    94    92     0     0    30  1.238     0     0     0
 2019 262    95    93     0     0    30  1.238     0     0     0
 2019 263    96    94     0     0    30  1.238     0     0     0
 2019 264    97    95     0     0    30  1.238     0     0     0
 2019 265    98    96     0     0    30  1.238     0     0     0
 2019 266    99    97     0     0    30  1.238     0     0     0
 2019 267   100    98     0     0    30  1.238     0     0     0
 2019 268   101    99     0     0    30  1.238     0     0     0
 2019 269   102   100     0     0    30  1.238     0     0     0
 2019 270   103   101     0     0    30  1.238     0     0     0
 2019 271   104   102     0     0    30  1.238     0     0     0
 2019 272   105   103     0     0    30  1.238     0     0     0
 2019 273   106   104     0     0    30  1.238     0     0     0
 2019 274   107   105     0     0    30  1.238     0     0     0
 2019 275   108   106     0     0    30  1.238     0     0     0
 2019 276   109   107     0     0    30  1.238     0     0     0
 2019 277   110   108     0     0    30  1.238     0     0     0
 2019 278   111   109     0     0    30  1.238     0     0     0
 2019 279   112   110     0     0    30  1.238     0     0     0
 2019 280   113   111     0     0    30  1.238     0     0     0
 2019 281   114   112     0     0    30  1.238     0     0     0
 2019 282   115   113     0     0    30  1.238     0     0     0
 2019 283   116   114     0     0    30  1.238     0     0     0
 2019 284   117   115     0     0    30  1.238     0     0     0
 2019 285   118   116     0     0    30  1.238     0     0     0
 2019 286   119   117     0     0    30  1.238     0     0     0
 2019 287   120   118     0     0    30  1.238     0     0     0
 2019 288   121   119     0     0    30  1.238     0     0     0
 2019 289   122   120     0     0    30  1.238     0     0     0
 2019 290   123   121     0     0    30  1.238     0     0     0
 2019 291   124   122     0     0    30  1.238     0     0     0
 2019 292   125   123     0     0    30  1.238     0     0     0
 2019 293   126   124     0     0    30  1.238     0     0     0
 2019 294   127   125     0     0    30  1.238     0     0     0
 2019 295   128   126     0     0    30  1.238     0     0     0
 2019 296   129   127     0     0    30  1.238     0     0     0
 2019 297   130   128     0     0    30  1.238     0     0     0
 2019 298   131   129     0     0    30  1.238     0     0     0
 2019 299   132   130     0     0    30  1.238     0     0     0
 2019 300   133   131     0     0    30  1.238     0     0     0
 2019 301   134   132     0     0    30  1.238     0     0     0
 2019 302   135   133     0     0    30  1.238     0     0     0
 2019 303   136   134     0     0    30  1.238     0     0     0
 2019 304   137   135     0     0    30  1.238     0     0     0
 2019 305   138   136     0     0    30  1.238     0     0     0
 2019 306   139   137     0     0    30  1.238     0     0     0
 2019 307   140   138     0     0    30  1.238     0     0     0
 2019 308   141   139     0     0    30  1.238     0     0     0
 2019 309   142   140     0     0    30  1.238     0     0     0
 2019 310   143   141     0     0    30  1.238     0     0     0
 2019 311   144   142     0     0    30  1.238     0     0     0
 2019 312   145   143     0     0    30  1.238     0     0     0
 2019 313   146   144     0     0    30  1.238     0     0     0
 2019 314   147   145     0     0    30  1.238     0     0     0
 2019 315   148   146     0     0    30  1.238     0     0     0
 2019 316   149   147     0     0    30  1.238     0     0     0
 2019 317   150   148     0     0    30  1.238     0     0     0
 2019 318   151   149     0     0    30  1.238     0     0     0
 2019 319   152   150     0     0    30  1.238     0     0     0
 2019 320   153   151     0     0    30  1.238     0     0     0
 2019 321   154   152     0     0    30  1.238     0     0     0
 2019 322   155   153     0     0    30  1.238     0     0     0
 2019 323   156   154     0     0    30  1.238     0     0     0
 2019 324   157   155     0     0    30  1.238     0     0     0
 2019 325   158   156     0     0    30  1.238     0     0     0
 2019 326   159   157     0     0    30  1.238     0     0     0
 2019 327   160   158     0     0    30  1.238     0     0     0
 2019 328   161   159     0     0    30  1.238     0     0     0
 2019 329   162   160     0     0    30  1.238     0     0     0
 2019 330   163   161     0     0    30  1.238     0     0     0
 2019 331   164   162     0     0    30  1.238     0     0     0
 2019 332   165   163     0     0    30  1.238     0     0     0
 2019 333   166   164     0     0    30  1.238     0     0     0
 2019 334   167   165     0     0    30  1.238     0     0     0
 2019 335   168   166     0     0    30  1.238     0     0     0
 2019 336   169   167     0     0    30  1.238     0     0     0
 2019 337   170   168     0     0    30  1.238     0     0     0
 2019 338   171   169     0     0    30  1.238     0     0     0
 2019 339   172   170     0     0    30  1.238     0     0     0
 2019 340   173   171     0     0    30  1.238     0     0     0
 2019 341   174   172     0     0    30  1.238     0     0     0
 2019 342   175   173     0     0    30  1.238     0     0     0
 2019 343   176   174     0     0    30  1.238     0     0     0
 2019 344   177   175     0     0    30  1.238     0     0     0
 2019 345   178   176     0     0    30  1.238     0     0     0
 2019 346   179   177     0     0    30  1.238     0     0     0
 2019 347   180   178     0     0    30  1.238     0     0     0
 2019 348   181   179     0     0    30  1.238     0     0     0
 2019 349   182   180     0     0    30  1.238     0     0     0
 2019 350   183   181     0     0    30  1.238     0     0     0
 2019 351   184   182     0     0    30  1.238     0     0     0
 2019 352   185   183     0     0    30  1.238     0     0     0
 2019 353   186   184     0     0    30  1.238     0     0     0
 2019 354   187   185     0     0    30  1.238     0     0     0
 2019 355   188   186     0     0    30  1.238     0     0     0
 2019 356   189   187     0     0    30  1.238     0     0     0
 2019 357   190   188     0     0    30  1.238     0     0     0
 2019 358   191   189     0     0    30  1.238     0     0     0
 2019 359   192   190     0     0    30  1.238     0     0     0
 2019 360   193   191     0     0    30  1.238     0     0     0
 2019 361   194   192     0     0    30  1.238     0     0     0
 2019 362   195   193     0     0    30  1.238     0     0     0
 2019 363   196   194     0     0    30  1.238     0     0     0
 2019 364   197   195     0     0    30  1.238     0     0     0
 2019 365   198   196     0     0    30  1.238     0     0     0
 2020 001   199   197     0     0    30  1.238     0     0     0
 2020 002   200   198     0     0    30  1.238     0     0     0
 2020 003   201   199     0     0    30  1.238     0     0     0
 2020 004   202   200     0     0    30  1.238     0     0     0
 2020 005   203   201     0     0    30  1.238     0     0     0
 2020 006   204   202     0     0    30  1.238     0     0     0
 2020 007   205   203     0     0    30  1.238     0     0     0
 2020 008   206   204     0     0    30  1.238     0     0     0
 2020 009   207   205     0     0    30  1.238     0     0     0
 2020 010   208   206     0     0    30  1.238     0     0     0
 2020 011   209   207     0     0    30  1.238     0     0     0
 2020 012   210   208     0     0    30  1.238     0     0     0
 2020 013   211   209     0     0    30  1.238     0     0     0
 2020 014   212   210     0     0    30  1.238     0     0     0
 2020 015   213   211     0     0    30  1.238     0     0     0
 2020 016   214   212     0     0    30  1.238     0     0     0
 2020 017   215   213     0     0    30  1.238     0     0     0
 2020 018   216   214     0     0    30  1.238     0     0     0
 2020 019   217   215     0     0    30  1.238     0     0     0
 2020 020   218   216     0     0    30  1.238     0     0     0
 2020 021   219   217     0     0    30  1.238     0     0     0
 2020 022   220   218     0     0    30  1.238     0     0     0
 2020 023   221   219     0     0    30  1.238     0     0     0
 2020 024   222   220     0     0    30  1.238     0     0     0
 2020 025   223   221     0     0    30  1.238     0     0     0
 2020 026   224   222     0     0    30  1.238     0     0     0
 2020 027   225   223     0     0    30  1.238     0     0     0
 2020 028   226   224     0     0    30  1.238     0     0     0
 2020 029   227   225     0     0    30  1.238     0     0     0
 2020 030   228   226     0     0    30  1.238     0     0     0
 2020 031   229   227     0     0    30  1.238     0     0     0
 2020 032   230   228     0     0    30  1.238     0     0     0
 2020 033   231   229     0     0    30  1.238     0     0     0
 2020 034   232   230     0     0    30  1.238     0     0     0
 2020 035   233   231     0     0    30  1.238     0     0     0
 2020 036   234   232     0     0    30  1.238     0     0     0
 2020 037   235   233     0     0    30  1.238     0     0     0
 2020 038   236   234     0     0    30  1.238     0     0     0
 2020 039   237   235     0     0    30  1.238     0     0     0
 2020 040   238   236     0     0    30  1.238     0     0     0
 2020 041   239   237     0     0    30  1.238     0     0     0
 2020 042   240   238     0     0    30  1.238     0     0     0
 2020 043   241   239     0     0    30  1.238     0     0     0
 2020 044   242   240     0     0    30  1.238     0     0     0
 2020 045   243   241     0     0    30  1.238     0     0     0
 2020 046   244   242     0     0    30  1.238     0     0     0
 2020 047   245   243     0     0    30  1.238     0     0     0
 2020 048   246   244     0     0    30  1.238     0     0     0
 2020 049   247   245     0     0    30  1.238     0     0     0
 2020 050   248   246     0     0    30  1.238     0     0     0
 2020 051   249   247     0     0    30  1.238     0     0     0
 2020 052   250   248     0     0    30  1.238     0     0     0
 2020 053   251   249     0     0    30  1.238     0     0     0
 2020 054   252   250     0     0    30  1.238     0     0     0
 2020 055   253   251     0     0    30  1.238     0     0     0
 2020 056   254   252     0     0    30  1.238     0     0     0
 2020 057   255   253     0     0    30  1.238     0     0     0
 2020 058   256   254     0     0    30  1.238     0     0     0
 2020 059   257   255     0     0    30  1.238     0     0     0
 2020 060   258   256     0     0    30  1.238     0     0     0
 2020 061   259   257     0     0    30  1.238     0     0     0
 2020 062   260   258     0     0    30  1.238     0     0     0
 2020 063   261   259     0     0    30  1.238     0     0     0
 2020 064   262   260     0     0    30  1.238     0     0     0
 2020 065   263   261     0     0    30  1.238     0     0     0
 2020 066   264   262     0     0    30  1.238     0     0     0
 2020 067   265   263     0     0    30  1.238     0     0     0
 2020 068   266   264     0     0    30  1.238     0     0     0
 2020 069   267   265     0     0    30  1.238     0     0     0
 2020 070   268   266     0     0    30  1.238     0     0     0
 2020 071   269   267     0     0    30  1.238     0     0     0
 2020 072   270   268     0     0    30  1.238     0     0     0
 2020 073   271   269     0     0    30  1.238     0     0     0
 2020 074   272   270     0     0    30  1.238     0     0     0
 2020 075   273   271     0     0    30  1.238     0     0     0
 2020 076   274   272     0     0    30  1.238     0     0     0
 2020 077   275   273     0     0    30  1.238     0     0     0
 2020 078   276   274     0     0    30  1.238     0     0     0
 2020 079   277   275     0     0    30  1.238     0     0     0
 2020 080   278   276     0     0    30  1.238     0     0     0
 2020 081   279   277     0     0    30  1.238     0     0     0
 2020 082   280   278     0     0    30  1.238     0     0     0
 2020 083   281   279     0     0    30  1.238     0     0     0
 2020 084   282   280     0     0    30  1.238     0     0     0
 2020 085   283   281     0     0    30  1.238     0     0     0
 2020 086   284   282     0     0    30  1.238     0     0     0
 2020 087   285   283     0     0    30  1.238     0     0     0
 2020 088   286   284     0     0    30  1.238     0     0     0
 2020 089   287   285     0     0    30  1.238     0     0     0
 2020 090   288   286     0     0    30  1.238     0     0     0
 2020 091   289   287     0     0    30  1.238     0     0     0
 2020 092   290   288     0     0    30  1.238     0     0     0
 2020 093   291   289     0     0    30  1.238     0     0     0
 2020 094   292   290     0     0    30  1.238     0     0     0
 2020 095   293   291     0     0    30  1.238     0     0     0
 2020 096   294   292     0     0    30  1.238     0     0     0
 2020 097   295   293     0     0    30  1.238     0     0     0
 2020 098   296   294     0     0    30  1.238     0     0     0
 2020 099   297   295     0     0    30  1.238     0     0     0
 2020 100   298   296     0     0    30  1.238     0     0     0
 2020 101   299   297     0     0    30  1.238     0     0     0
 2020 102   300   298     0     0    30  1.238     0     0     0
 2020 103   301   299     0     0    30  1.238     0     0     0
 2020 104   302   300     0     0    30  1.238     0     0     0
 2020 105   303   301     0     0    30  1.238     0     0     0
 2020 106   304   302     0     0    30  1.238     0     0     0
 2020 107   305   303     0     0    30  1.238     0     0     0
 2020 108   306   304     0     0    30  1.238     0     0     0
 2020 109   307   305     0     0    30  1.238     0     0     0
 2020 110   308   306     0     0    30  1.238     0     0     0
 2020 111   309   307     0     0    30  1.238     0     0     0
 2020 112   310   308     0     0    30  1.238     0     0     0
 2020 113   311   309     0     0    30  1.238     0     0     0
 2020 114   312   310     0     0    30  1.238     0     0     0
 2020 115   313   311     0     0    30  1.238     0     0     0
 2020 116   314   312     0     0    30  1.238     0     0     0
 2020 117   315   313     0     0    30  1.238     0     0     0
 2020 118   316   314     0     0    30  1.238     0     0     0
 2020 119   317   315     0     0    30  1.238     0     0     0
 2020 120   318   316     0     0    30  1.238     0     0     0
 2020 121   319   317     0     0    30  1.238     0     0     0
 2020 122   320   318     0     0    30  1.238     0     0     0
 2020 123   321   319     0     0    30  1.238     0     0     0
 2020 124   322   320     0     0    30  1.238     0     0     0
 2020 125   323   321     0     0    30  1.238     0     0     0
 2020 126   324   322     0     0    30  1.238     0     0     0
 2020 127   325   323     0     0    30  1.238     0     0     0
 2020 128   326   324     0     0    30  1.238     0     0     0
 2020 129   327   325     0     0    30  1.238     0     0     0
 2020 130   328   326     0     0    30  1.238     0     0     0
 2020 131   329   327     0     0    30  1.238     0     0     0
 2020 132   330   328     0     0    30  1.238     0     0     0
 2020 133   331   329     0     0    30  1.238     0     0     0
 2020 134   332   330     0     0    30  1.238     0     0     0
 2020 135   333   331     0     0    30  1.238     0     0     0
 2020 136   334   332     0     0    30  1.238     0     0     0
 2020 137   335   333     0     0    30  1.238     0     0     0
 2020 138   336   334     0     0    30  1.238     0     0     0
 2020 139   337   335     0     0    30  1.238     0     0     0
 2020 140   338   336     0     0    30  1.238     0     0     0
 2020 141   339   337     0     0    30  1.238     0     0     0
 2020 142   340   338     0     0    30  1.238     0     0     0
 2020 143   341   339     0     0    30  1.238     0     0     0
 2020 144   342   340     0     0    30  1.238     0     0     0
 2020 145   343   341     0     0    30  1.238     0     0     0
 2020 146   344   342     0     0    30  1.238     0     0     0
 2020 147   345   343     0     0    30  1.238     0     0     0
 2020 148   346   344     0     0    30  1.238     0     0     0
 2020 149   347   345     0     0    30  1.238     0     0     0
 2020 150   348   346     0     0    30  1.238     0     0     0
 2020 151   349   347     0     0    30  1.238     0     0     0
 2020 152   350   348     0     0    30  1.238     0     0     0
 2020 153   351   349     0     0    30  1.238     0     0     0
 2020 154   352   350     0     0    30  1.238     0     0     0
 2020 155   353   351     0     0    30  1.238     0     0     0
 2020 156   354   352     0     0    30  1.238     0     0     0
 2020 157   355   353     0     0    30  1.238     0     0     0
 2020 158   356   354     0     0    30  1.238     0     0     0
 2020 159   357   355     0     0    30  1.238     0     0     0
 2020 160   358   356     0     0    30  1.238     0     0     0
 2020 161   359   357     0     0    30  1.238     0     0     0
 2020 162   360   358     0     0    30  1.238     0     0     0
 2020 163   361   359     0     0    30  1.238     0     0     0
 2020 164   362   360     0     0    30  1.238     0     0     0
 2020 165   363   361     0     0    30  1.238     0     0     0
 2020 166   364   362     0     0    30  1.238     0     0     0
 2020 167   365   363     0     0    30  1.238     0     0     0
 2020 168   366   364     0     0    30  1.238     0     0     0
 2020 169   367   365     0     0    30  1.238     0     0     0
 2020 170   368   366     0     0    30  1.238     0     0     0
 2020 171   369   367     0     0    30  1.238     0     0     0
 2020 172   370   368     0     0    30  1.238     0     0     0
 2020 173   371   369     0     0    30  1.238     0     0     0
 2020 174   372   370     0     0    30  1.238     0     0     0
 2020 175   373   371     0     0    30  1.238     0     0     0
 2020 176   374   372     0     0    30  1.238     0     0     0
 2020 177   375   373     0     0    30  1.238     0     0     0
 2020 178   376   374     0     0    30  1.238     0     0     0
 2020 179   377   375     0     0    30  1.238     0     0     0
 2020 180   378   376     0     0    30  1.238     0     0     0
 2020 181   379   377     0     0    30  1.238     0     0     0
 2020 182   380   378     0     0    30  1.238     0     0     0
 2020 183   381   379     0     0    30  1.238     0     0     0
 2020 184   382   380     0     0    30  1.238     0     0     0
 2020 185   383   381     0     0    30  1.238     0     0     0
 2020 186   384   382     0     0    30  1.238     0     0     0
 2020 187   385   383     0     0    30  1.238     0     0     0
 2020 188   386   384     0     0    30  1.238     0     0     0
 2020 189   387   385     0     0    30  1.238     0     0     0
 2020 190   388   386     0     0    30  1.238     0     0     0
 2020 191   389   387     0     0    30  1.238     0     0     0
 2020 192   390   388     0     0    30  1.238     0     0     0
 2020 193   391   389     0     0    30  1.238     0     0     0
 2020 194   392   390     0     0    30  1.238     0     0     0
 2020 195   393   391     0     0    30  1.238     0     0     0
 2020 196   394   392     0     0    30  1.238     0     0     0
 2020 197   395   393     0     0    30  1.238     0     0     0
 2020 198   396   394     0     0    30  1.238     0     0     0
 2020 199   397   395     0     0    30  1.238     0     0     0
 2020 200   398   396     0     0    30  1.238     0     0     0
 2020 201   399   397     0     0    30  1.238     0     0     0
 2020 202   400   398     0     0    30  1.238     0     0     0
 2020 203   401   399     0     0    30  1.238     0     0     0
 2020 204   402   400     0     0    30  1.238     0     0     0
 2020 205   403   401     0     0    30  1.238     0     0     0
 2020 206   404   402     0     0    30  1.238     0     0     0
 2020 207   405   403     0     0    30  1.238     0     0     0
 2020 208   406   404     0     0    30  1.238     0     0     0
 2020 209   407   405     0     0    30  1.238     0     0     0

*DSSAT Cropping System Model Ver. 4.8.0.019 -develop  APR 08, 2023 12:34:37

*RUN   2        : IITA-TMS-IBA000070        CSYCA048 UYAG1701    1
 MODEL          : CSYCA048 - Cassava
 EXPERIMENT     : UYAG1701 CS UYT_GXE
 DATA PATH      :
 TREATMENT  1   : IITA-TMS-IBA000070        CSYCA048
  

@YEAR DOY   DAS   DAP  TL#C  TLDD DLYR3   TLBD  R#AC RESNC RESPC
 2017 241     1     0     0     0    30  1.342     0     0     0
 2017 242     2     0     0     0    30  1.342     0     0     0
 2017 243     3     1     0     0    30  1.342     0     0     0
 2017 244     4     2     0     0    30  1.342     0     0     0
 2017 245     5     3     0     0    30  1.342     0     0     0
 2017 246     6     4     0     0    30  1.342     0     0     0
 2017 247     7     5     0     0    30  1.342     0     0     0
 2017 248     8     6     0     0    30  1.342     0     0     0
 2017 249     9     7     0     0    30  1.342     0     0     0
 2017 250    10     8     0     0    30  1.342     0     0     0
 2017 251    11     9     0     0    30  1.342     0     0     0
 2017 252    12    10     0     0    30  1.342     0     0     0
 2017 253    13    11     0     0    30  1.342     0     0     0
 2017 254    14    12     0     0    30  1.342     0     0     0
 2017 255    15    13     0     0    30  1.342     0     0     0
 2017 256    16    14     0     0    30  1.342     0     0     0
 2017 257    17    15     0     0    30  1.342     0     0     0
 2017 258    18    16     0     0    30  1.342     0     0     0
 2017 259    19    17     0     0    30  1.342     0     0     0
 2017 260    20    18     0     0    30  1.342     0     0     0
 2017 261    21    19     0     0    30  1.342     0     0     0
 2017 262    22    20     0     0    30  1.342     0     0     0
 2017 263    23    21     0     0    30  1.342     0     0     0
 2017 264    24    22     0     0    30  1.342     0     0     0
 2017 265    25    23     0     0    30  1.342     0     0     0
 2017 266    26    24     0     0    30  1.342     0     0     0
 2017 267    27    25     0     0    30  1.342     0     0     0
 2017 268    28    26     0     0    30  1.342     0     0     0
 2017 269    29    27     0     0    30  1.342     0     0     0
 2017 270    30    28     0     0    30  1.342     0     0     0
 2017 271    31    29     0     0    30  1.342     0     0     0
 2017 272    32    30     0     0    30  1.342     0     0     0
 2017 273    33    31     0     0    30  1.342     0     0     0
 2017 274    34    32     0     0    30  1.342     0     0     0
 2017 275    35    33     0     0    30  1.342     0     0     0
 2017 276    36    34     0     0    30  1.342     0     0     0
 2017 277    37    35     0     0    30  1.342     0     0     0
 2017 278    38    36     0     0    30  1.342     0     0     0
 2017 279    39    37     0     0    30  1.342     0     0     0
 2017 280    40    38     0     0    30  1.342     0     0     0
 2017 281    41    39     0     0    30  1.342     0     0     0
 2017 282    42    40     0     0    30  1.342     0     0     0
 2017 283    43    41     0     0    30  1.342     0     0     0
 2017 284    44    42     0     0    30  1.342     0     0     0
 2017 285    45    43     0     0    30  1.342     0     0     0
 2017 286    46    44     0     0    30  1.342     0     0     0
 2017 287    47    45     0     0    30  1.342     0     0     0
 2017 288    48    46     0     0    30  1.342     0     0     0
 2017 289    49    47     0     0    30  1.342     0     0     0
 2017 290    50    48     0     0    30  1.342     0     0     0
 2017 291    51    49     0     0    30  1.342     0     0     0
 2017 292    52    50     0     0    30  1.342     0     0     0
 2017 293    53    51     0     0    30  1.342     0     0     0
 2017 294    54    52     0     0    30  1.342     0     0     0
 2017 295    55    53     0     0    30  1.342     0     0     0
 2017 296    56    54     0     0    30  1.342     0     0     0
 2017 297    57    55     0     0    30  1.342     0     0     0
 2017 298    58    56     0     0    30  1.342     0     0     0
 2017 299    59    57     0     0    30  1.342     0     0     0
 2017 300    60    58     0     0    30  1.342     0     0     0
 2017 301    61    59     0     0    30  1.342     0     0     0
 2017 302    62    60     0     0    30  1.342     0     0     0
 2017 303    63    61     0     0    30  1.342     0     0     0
 2017 304    64    62     0     0    30  1.342     0     0     0
 2017 305    65    63     0     0    30  1.342     0     0     0
 2017 306    66    64     0     0    30  1.342     0     0     0
 2017 307    67    65     0     0    30  1.342     0     0     0
 2017 308    68    66     0     0    30  1.342     0     0     0
 2017 309    69    67     0     0    30  1.342     0     0     0
 2017 310    70    68     0     0    30  1.342     0     0     0
 2017 311    71    69     0     0    30  1.342     0     0     0
 2017 312    72    70     0     0    30  1.342     0     0     0
 2017 313    73    71     0     0    30  1.342     0     0     0
 2017 314    74    72     0     0    30  1.342     0     0     0
 2017 315    75    73     0     0    30  1.342     0     0     0
 2017 316    76    74     0     0    30  1.342     0     0     0
 2017 317    77    75     0     0    30  1.342     0     0     0
 2017 318    78    76     0     0    30  1.342     0     0     0
 2017 319    79    77     0     0    30  1.342     0     0     0
 2017 320    80    78     0     0    30  1.342     0     0     0
 2017 321    81    79     0     0    30  1.342     0     0     0
 2017 322    82    80     0     0    30  1.342     0     0     0
 2017 323    83    81     0     0    30  1.342     0     0     0
 2017 324    84    82     0     0    30  1.342     0     0     0
 2017 325    85    83     0     0    30  1.342     0     0     0
 2017 326    86    84     0     0    30  1.342     0     0     0
 2017 327    87    85     0     0    30  1.342     0     0     0
 2017 328    88    86     0     0    30  1.342     0     0     0
 2017 329    89    87     0     0    30  1.342     0     0     0
 2017 330    90    88     0     0    30  1.342     0     0     0
 2017 331    91    89     0     0    30  1.342     0     0     0
 2017 332    92    90     0     0    30  1.342     0     0     0
 2017 333    93    91     0     0    30  1.342     0     0     0
 2017 334    94    92     0     0    30  1.342     0     0     0
 2017 335    95    93     0     0    30  1.342     0     0     0
 2017 336    96    94     0     0    30  1.342     0     0     0
 2017 337    97    95     0     0    30  1.342     0     0     0
 2017 338    98    96     0     0    30  1.342     0     0     0
 2017 339    99    97     0     0    30  1.342     0     0     0
 2017 340   100    98     0     0    30  1.342     0     0     0
 2017 341   101    99     0     0    30  1.342     0     0     0
 2017 342   102   100     0     0    30  1.342     0     0     0
 2017 343   103   101     0     0    30  1.342     0     0     0
 2017 344   104   102     0     0    30  1.342     0     0     0
 2017 345   105   103     0     0    30  1.342     0     0     0
 2017 346   106   104     0     0    30  1.342     0     0     0
 2017 347   107   105     0     0    30  1.342     0     0     0
 2017 348   108   106     0     0    30  1.342     0     0     0
 2017 349   109   107     0     0    30  1.342     0     0     0
 2017 350   110   108     0     0    30  1.342     0     0     0
 2017 351   111   109     0     0    30  1.342     0     0     0
 2017 352   112   110     0     0    30  1.342     0     0     0
 2017 353   113   111     0     0    30  1.342     0     0     0
 2017 354   114   112     0     0    30  1.342     0     0     0
 2017 355   115   113     0     0    30  1.342     0     0     0
 2017 356   116   114     0     0    30  1.342     0     0     0
 2017 357   117   115     0     0    30  1.342     0     0     0
 2017 358   118   116     0     0    30  1.342     0     0     0
 2017 359   119   117     0     0    30  1.342     0     0     0
 2017 360   120   118     0     0    30  1.342     0     0     0
 2017 361   121   119     0     0    30  1.342     0     0     0
 2017 362   122   120     0     0    30  1.342     0     0     0
 2017 363   123   121     0     0    30  1.342     0     0     0
 2017 364   124   122     0     0    30  1.342     0     0     0
 2017 365   125   123     0     0    30  1.342     0     0     0
 2018 001   126   124     0     0    30  1.342     0     0     0
 2018 002   127   125     0     0    30  1.342     0     0     0
 2018 003   128   126     0     0    30  1.342     0     0     0
 2018 004   129   127     0     0    30  1.342     0     0     0
 2018 005   130   128     0     0    30  1.342     0     0     0
 2018 006   131   129     0     0    30  1.342     0     0     0
 2018 007   132   130     0     0    30  1.342     0     0     0
 2018 008   133   131     0     0    30  1.342     0     0     0
 2018 009   134   132     0     0    30  1.342     0     0     0
 2018 010   135   133     0     0    30  1.342     0     0     0
 2018 011   136   134     0     0    30  1.342     0     0     0
 2018 012   137   135     0     0    30  1.342     0     0     0
 2018 013   138   136     0     0    30  1.342     0     0     0
 2018 014   139   137     0     0    30  1.342     0     0     0
 2018 015   140   138     0     0    30  1.342     0     0     0
 2018 016   141   139     0     0    30  1.342     0     0     0
 2018 017   142   140     0     0    30  1.342     0     0     0
 2018 018   143   141     0     0    30  1.342     0     0     0
 2018 019   144   142     0     0    30  1.342     0     0     0
 2018 020   145   143     0     0    30  1.342     0     0     0
 2018 021   146   144     0     0    30  1.342     0     0     0
 2018 022   147   145     0     0    30  1.342     0     0     0
 2018 023   148   146     0     0    30  1.342     0     0     0
 2018 024   149   147     0     0    30  1.342     0     0     0
 2018 025   150   148     0     0    30  1.342     0     0     0
 2018 026   151   149     0     0    30  1.342     0     0     0
 2018 027   152   150     0     0    30  1.342     0     0     0
 2018 028   153   151     0     0    30  1.342     0     0     0
 2018 029   154   152     0     0    30  1.342     0     0     0
 2018 030   155   153     0     0    30  1.342     0     0     0
 2018 031   156   154     0     0    30  1.342     0     0     0
 2018 032   157   155     0     0    30  1.342     0     0     0
 2018 033   158   156     0     0    30  1.342     0     0     0
 2018 034   159   157     0     0    30  1.342     0     0     0
 2018 035   160   158     0     0    30  1.342     0     0     0
 2018 036   161   159     0     0    30  1.342     0     0     0
 2018 037   162   160     0     0    30  1.342     0     0     0
 2018 038   163   161     0     0    30  1.342     0     0     0
 2018 039   164   162     0     0    30  1.342     0     0     0
 2018 040   165   163     0     0    30  1.342     0     0     0
 2018 041   166   164     0     0    30  1.342     0     0     0
 2018 042   167   165     0     0    30  1.342     0     0     0
 2018 043   168   166     0     0    30  1.342     0     0     0
 2018 044   169   167     0     0    30  1.342     0     0     0
 2018 045   170   168     0     0    30  1.342     0     0     0
 2018 046   171   169     0     0    30  1.342     0     0     0
 2018 047   172   170     0     0    30  1.342     0     0     0
 2018 048   173   171     0     0    30  1.342     0     0     0
 2018 049   174   172     0     0    30  1.342     0     0     0
 2018 050   175   173     0     0    30  1.342     0     0     0
 2018 051   176   174     0     0    30  1.342     0     0     0
 2018 052   177   175     0     0    30  1.342     0     0     0
 2018 053   178   176     0     0    30  1.342     0     0     0
 2018 054   179   177     0     0    30  1.342     0     0     0
 2018 055   180   178     0     0    30  1.342     0     0     0
 2018 056   181   179     0     0    30  1.342     0     0     0
 2018 057   182   180     0     0    30  1.342     0     0     0
 2018 058   183   181     0     0    30  1.342     0     0     0
 2018 059   184   182     0     0    30  1.342     0     0     0
 2018 060   185   183     0     0    30  1.342     0     0     0
 2018 061   186   184     0     0    30  1.342     0     0     0
 2018 062   187   185     0     0    30  1.342     0     0     0
 2018 063   188   186     0     0    30  1.342     0     0     0
 2018 064   189   187     0     0    30  1.342     0     0     0
 2018 065   190   188     0     0    30  1.342     0     0     0
 2018 066   191   189     0     0    30  1.342     0     0     0
 2018 067   192   190     0     0    30  1.342     0     0     0
 2018 068   193   191     0     0    30  1.342     0     0     0
 2018 069   194   192     0     0    30  1.342     0     0     0
 2018 070   195   193     0     0    30  1.342     0     0     0
 2018 071   196   194     0     0    30  1.342     0     0     0
 2018 072   197   195     0     0    30  1.342     0     0     0
 2018 073   198   196     0     0    30  1.342     0     0     0
 2018 074   199   197     0     0    30  1.342     0     0     0
 2018 075   200   198     0     0    30  1.342     0     0     0
 2018 076   201   199     0     0    30  1.342     0     0     0
 2018 077   202   200     0     0    30  1.342     0     0     0
 2018 078   203   201     0     0    30  1.342     0     0     0
 2018 079   204   202     0     0    30  1.342     0     0     0
 2018 080   205   203     0     0    30  1.342     0     0     0
 2018 081   206   204     0     0    30  1.342     0     0     0
 2018 082   207   205     0     0    30  1.342     0     0     0
 2018 083   208   206     0     0    30  1.342     0     0     0
 2018 084   209   207     0     0    30  1.342     0     0     0
 2018 085   210   208     0     0    30  1.342     0     0     0
 2018 086   211   209     0     0    30  1.342     0     0     0
 2018 087   212   210     0     0    30  1.342     0     0     0
 2018 088   213   211     0     0    30  1.342     0     0     0
 2018 089   214   212     0     0    30  1.342     0     0     0
 2018 090   215   213     0     0    30  1.342     0     0     0
 2018 091   216   214     0     0    30  1.342     0     0     0
 2018 092   217   215     0     0    30  1.342     0     0     0
 2018 093   218   216     0     0    30  1.342     0     0     0
 2018 094   219   217     0     0    30  1.342     0     0     0
 2018 095   220   218     0     0    30  1.342     0     0     0
 2018 096   221   219     0     0    30  1.342     0     0     0
 2018 097   222   220     0     0    30  1.342     0     0     0
 2018 098   223   221     0     0    30  1.342     0     0     0
 2018 099   224   222     0     0    30  1.342     0     0     0
 2018 100   225   223     0     0    30  1.342     0     0     0
 2018 101   226   224     0     0    30  1.342     0     0     0
 2018 102   227   225     0     0    30  1.342     0     0     0
 2018 103   228   226     0     0    30  1.342     0     0     0
 2018 104   229   227     0     0    30  1.342     0     0     0
 2018 105   230   228     0     0    30  1.342     0     0     0
 2018 106   231   229     0     0    30  1.342     0     0     0
 2018 107   232   230     0     0    30  1.342     0     0     0
 2018 108   233   231     0     0    30  1.342     0     0     0
 2018 109   234   232     0     0    30  1.342     0     0     0
 2018 110   235   233     0     0    30  1.342     0     0     0
 2018 111   236   234     0     0    30  1.342     0     0     0
 2018 112   237   235     0     0    30  1.342     0     0     0
 2018 113   238   236     0     0    30  1.342     0     0     0
 2018 114   239   237     0     0    30  1.342     0     0     0
 2018 115   240   238     0     0    30  1.342     0     0     0
 2018 116   241   239     0     0    30  1.342     0     0     0
 2018 117   242   240     0     0    30  1.342     0     0     0
 2018 118   243   241     0     0    30  1.342     0     0     0
 2018 119   244   242     0     0    30  1.342     0     0     0
 2018 120   245   243     0     0    30  1.342     0     0     0
 2018 121   246   244     0     0    30  1.342     0     0     0
 2018 122   247   245     0     0    30  1.342     0     0     0
 2018 123   248   246     0     0    30  1.342     0     0     0
 2018 124   249   247     0     0    30  1.342     0     0     0
 2018 125   250   248     0     0    30  1.342     0     0     0
 2018 126   251   249     0     0    30  1.342     0     0     0
 2018 127   252   250     0     0    30  1.342     0     0     0
 2018 128   253   251     0     0    30  1.342     0     0     0
 2018 129   254   252     0     0    30  1.342     0     0     0
 2018 130   255   253     0     0    30  1.342     0     0     0
 2018 131   256   254     0     0    30  1.342     0     0     0
 2018 132   257   255     0     0    30  1.342     0     0     0
 2018 133   258   256     0     0    30  1.342     0     0     0
 2018 134   259   257     0     0    30  1.342     0     0     0
 2018 135   260   258     0     0    30  1.342     0     0     0
 2018 136   261   259     0     0    30  1.342     0     0     0
 2018 137   262   260     0     0    30  1.342     0     0     0
 2018 138   263   261     0     0    30  1.342     0     0     0
 2018 139   264   262     0     0    30  1.342     0     0     0
 2018 140   265   263     0     0    30  1.342     0     0     0
 2018 141   266   264     0     0    30  1.342     0     0     0
 2018 142   267   265     0     0    30  1.342     0     0     0
 2018 143   268   266     0     0    30  1.342     0     0     0
 2018 144   269   267     0     0    30  1.342     0     0     0
 2018 145   270   268     0     0    30  1.342     0     0     0
 2018 146   271   269     0     0    30  1.342     0     0     0
 2018 147   272   270     0     0    30  1.342     0     0     0
 2018 148   273   271     0     0    30  1.342     0     0     0
 2018 149   274   272     0     0    30  1.342     0     0     0
 2018 150   275   273     0     0    30  1.342     0     0     0
 2018 151   276   274     0     0    30  1.342     0     0     0
 2018 152   277   275     0     0    30  1.342     0     0     0
 2018 153   278   276     0     0    30  1.342     0     0     0
 2018 154   279   277     0     0    30  1.342     0     0     0
 2018 155   280   278     0     0    30  1.342     0     0     0
 2018 156   281   279     0     0    30  1.342     0     0     0
 2018 157   282   280     0     0    30  1.342     0     0     0
 2018 158   283   281     0     0    30  1.342     0     0     0
 2018 159   284   282     0     0    30  1.342     0     0     0
 2018 160   285   283     0     0    30  1.342     0     0     0
 2018 161   286   284     0     0    30  1.342     0     0     0
 2018 162   287   285     0     0    30  1.342     0     0     0
 2018 163   288   286     0     0    30  1.342     0     0     0
 2018 164   289   287     0     0    30  1.342     0     0     0
 2018 165   290   288     0     0    30  1.342     0     0     0
 2018 166   291   289     0     0    30  1.342     0     0     0
 2018 167   292   290     0     0    30  1.342     0     0     0
 2018 168   293   291     0     0    30  1.342     0     0     0
 2018 169   294   292     0     0    30  1.342     0     0     0
 2018 170   295   293     0     0    30  1.342     0     0     0
 2018 171   296   294     0     0    30  1.342     0     0     0
 2018 172   297   295     0     0    30  1.342     0     0     0
 2018 173   298   296     0     0    30  1.342     0     0     0
 2018 174   299   297     0     0    30  1.342     0     0     0
 2018 175   300   298     0     0    30  1.342     0     0     0
 2018 176   301   299     0     0    30  1.342     0     0     0
 2018 177   302   300     0     0    30  1.342     0     0     0
 2018 178   303   301     0     0    30  1.342     0     0     0
 2018 179   304   302     0     0    30  1.342     0     0     0
 2018 180   305   303     0     0    30  1.342     0     0     0
 2018 181   306   304     0     0    30  1.342     0     0     0
 2018 182   307   305     0     0    30  1.342     0     0     0
 2018 183   308   306     0     0    30  1.342     0     0     0
 2018 184   309   307     0     0    30  1.342     0     0     0
 2018 185   310   308     0     0    30  1.342     0     0     0
 2018 186   311   309     0     0    30  1.342     0     0     0
 2018 187   312   310     0     0    30  1.342     0     0     0
 2018 188   313   311     0     0    30  1.342     0     0     0
 2018 189   314   312     0     0    30  1.342     0     0     0
 2018 190   315   313     0     0    30  1.342     0     0     0
 2018 191   316   314     0     0    30  1.342     0     0     0
 2018 192   317   315     0     0    30  1.342     0     0     0
 2018 193   318   316     0     0    30  1.342     0     0     0
 2018 194   319   317     0     0    30  1.342     0     0     0

*DSSAT Cropping System Model Ver. 4.8.0.019 -develop  APR 08, 2023 12:34:38

*RUN   3        : IITA-TMS-IBA000070        CSYCA048 UYAG1801    1
 MODEL          : CSYCA048 - Cassava
 EXPERIMENT     : UYAG1801 CS UYT_GXE
 DATA PATH      :
 TREATMENT  1   : IITA-TMS-IBA000070        CSYCA048
  

@YEAR DOY   DAS   DAP  TL#C  TLDD DLYR3   TLBD  R#AC RESNC RESPC
 2018 171     1     0     0     0    30  1.342     0     0     0
 2018 172     2     0     0     0    30  1.342     0     0     0
 2018 173     3     1     0     0    30  1.342     0     0     0
 2018 174     4     2     0     0    30  1.342     0     0     0
 2018 175     5     3     0     0    30  1.342     0     0     0
 2018 176     6     4     0     0    30  1.342     0     0     0
 2018 177     7     5     0     0    30  1.342     0     0     0
 2018 178     8     6     0     0    30  1.342     0     0     0
 2018 179     9     7     0     0    30  1.342     0     0     0
 2018 180    10     8     0     0    30  1.342     0     0     0
 2018 181    11     9     0     0    30  1.342     0     0     0
 2018 182    12    10     0     0    30  1.342     0     0     0
 2018 183    13    11     0     0    30  1.342     0     0     0
 2018 184    14    12     0     0    30  1.342     0     0     0
 2018 185    15    13     0     0    30  1.342     0     0     0
 2018 186    16    14     0     0    30  1.342     0     0     0
 2018 187    17    15     0     0    30  1.342     0     0     0
 2018 188    18    16     0     0    30  1.342     0     0     0
 2018 189    19    17     0     0    30  1.342     0     0     0
 2018 190    20    18     0     0    30  1.342     0     0     0
 2018 191    21    19     0     0    30  1.342     0     0     0
 2018 192    22    20     0     0    30  1.342     0     0     0
 2018 193    23    21     0     0    30  1.342     0     0     0
 2018 194    24    22     0     0    30  1.342     0     0     0
 2018 195    25    23     0     0    30  1.342     0     0     0
 2018 196    26    24     0     0    30  1.342     0     0     0
 2018 197    27    25     0     0    30  1.342     0     0     0
 2018 198    28    26     0     0    30  1.342     0     0     0
 2018 199    29    27     0     0    30  1.342     0     0     0
 2018 200    30    28     0     0    30  1.342     0     0     0
 2018 201    31    29     0     0    30  1.342     0     0     0
 2018 202    32    30     0     0    30  1.342     0     0     0
 2018 203    33    31     0     0    30  1.342     0     0     0
 2018 204    34    32     0     0    30  1.342     0     0     0
 2018 205    35    33     0     0    30  1.342     0     0     0
 2018 206    36    34     0     0    30  1.342     0     0     0
 2018 207    37    35     0     0    30  1.342     0     0     0
 2018 208    38    36     0     0    30  1.342     0     0     0
 2018 209    39    37     0     0    30  1.342     0     0     0
 2018 210    40    38     0     0    30  1.342     0     0     0
 2018 211    41    39     0     0    30  1.342     0     0     0
 2018 212    42    40     0     0    30  1.342     0     0     0
 2018 213    43    41     0     0    30  1.342     0     0     0
 2018 214    44    42     0     0    30  1.342     0     0     0
 2018 215    45    43     0     0    30  1.342     0     0     0
 2018 216    46    44     0     0    30  1.342     0     0     0
 2018 217    47    45     0     0    30  1.342     0     0     0
 2018 218    48    46     0     0    30  1.342     0     0     0
 2018 219    49    47     0     0    30  1.342     0     0     0
 2018 220    50    48     0     0    30  1.342     0     0     0
 2018 221    51    49     0     0    30  1.342     0     0     0
 2018 222    52    50     0     0    30  1.342     0     0     0
 2018 223    53    51     0     0    30  1.342     0     0     0
 2018 224    54    52     0     0    30  1.342     0     0     0
 2018 225    55    53     0     0    30  1.342     0     0     0
 2018 226    56    54     0     0    30  1.342     0     0     0
 2018 227    57    55     0     0    30  1.342     0     0     0
 2018 228    58    56     0     0    30  1.342     0     0     0
 2018 229    59    57     0     0    30  1.342     0     0     0
 2018 230    60    58     0     0    30  1.342     0     0     0
 2018 231    61    59     0     0    30  1.342     0     0     0
 2018 232    62    60     0     0    30  1.342     0     0     0
 2018 233    63    61     0     0    30  1.342     0     0     0
 2018 234    64    62     0     0    30  1.342     0     0     0
 2018 235    65    63     0     0    30  1.342     0     0     0
 2018 236    66    64     0     0    30  1.342     0     0     0
 2018 237    67    65     0     0    30  1.342     0     0     0
 2018 238    68    66     0     0    30  1.342     0     0     0
 2018 239    69    67     0     0    30  1.342     0     0     0
 2018 240    70    68     0     0    30  1.342     0     0     0
 2018 241    71    69     0     0    30  1.342     0     0     0
 2018 242    72    70     0     0    30  1.342     0     0     0
 2018 243    73    71     0     0    30  1.342     0     0     0
 2018 244    74    72     0     0    30  1.342     0     0     0
 2018 245    75    73     0     0    30  1.342     0     0     0
 2018 246    76    74     0     0    30  1.342     0     0     0
 2018 247    77    75     0     0    30  1.342     0     0     0
 2018 248    78    76     0     0    30  1.342     0     0     0
 2018 249    79    77     0     0    30  1.342     0     0     0
 2018 250    80    78     0     0    30  1.342     0     0     0
 2018 251    81    79     0     0    30  1.342     0     0     0
 2018 252    82    80     0     0    30  1.342     0     0     0
 2018 253    83    81     0     0    30  1.342     0     0     0
 2018 254    84    82     0     0    30  1.342     0     0     0
 2018 255    85    83     0     0    30  1.342     0     0     0
 2018 256    86    84     0     0    30  1.342     0     0     0
 2018 257    87    85     0     0    30  1.342     0     0     0
 2018 258    88    86     0     0    30  1.342     0     0     0
 2018 259    89    87     0     0    30  1.342     0     0     0
 2018 260    90    88     0     0    30  1.342     0     0     0
 2018 261    91    89     0     0    30  1.342     0     0     0
 2018 262    92    90     0     0    30  1.342     0     0     0
 2018 263    93    91     0     0    30  1.342     0     0     0
 2018 264    94    92     0     0    30  1.342     0     0     0
 2018 265    95    93     0     0    30  1.342     0     0     0
 2018 266    96    94     0     0    30  1.342     0     0     0
 2018 267    97    95     0     0    30  1.342     0     0     0
 2018 268    98    96     0     0    30  1.342     0     0     0
 2018 269    99    97     0     0    30  1.342     0     0     0
 2018 270   100    98     0     0    30  1.342     0     0     0
 2018 271   101    99     0     0    30  1.342     0     0     0
 2018 272   102   100     0     0    30  1.342     0     0     0
 2018 273   103   101     0     0    30  1.342     0     0     0
 2018 274   104   102     0     0    30  1.342     0     0     0
 2018 275   105   103     0     0    30  1.342     0     0     0
 2018 276   106   104     0     0    30  1.342     0     0     0
 2018 277   107   105     0     0    30  1.342     0     0     0
 2018 278   108   106     0     0    30  1.342     0     0     0
 2018 279   109   107     0     0    30  1.342     0     0     0
 2018 280   110   108     0     0    30  1.342     0     0     0
 2018 281   111   109     0     0    30  1.342     0     0     0
 2018 282   112   110     0     0    30  1.342     0     0     0
 2018 283   113   111     0     0    30  1.342     0     0     0
 2018 284   114   112     0     0    30  1.342     0     0     0
 2018 285   115   113     0     0    30  1.342     0     0     0
 2018 286   116   114     0     0    30  1.342     0     0     0
 2018 287   117   115     0     0    30  1.342     0     0     0
 2018 288   118   116     0     0    30  1.342     0     0     0
 2018 289   119   117     0     0    30  1.342     0     0     0
 2018 290   120   118     0     0    30  1.342     0     0     0
 2018 291   121   119     0     0    30  1.342     0     0     0
 2018 292   122   120     0     0    30  1.342     0     0     0
 2018 293   123   121     0     0    30  1.342     0     0     0
 2018 294   124   122     0     0    30  1.342     0     0     0
 2018 295   125   123     0     0    30  1.342     0     0     0
 2018 296   126   124     0     0    30  1.342     0     0     0
 2018 297   127   125     0     0    30  1.342     0     0     0
 2018 298   128   126     0     0    30  1.342     0     0     0
 2018 299   129   127     0     0    30  1.342     0     0     0
 2018 300   130   128     0     0    30  1.342     0     0     0
 2018 301   131   129     0     0    30  1.342     0     0     0
 2018 302   132   130     0     0    30  1.342     0     0     0
 2018 303   133   131     0     0    30  1.342     0     0     0
 2018 304   134   132     0     0    30  1.342     0     0     0
 2018 305   135   133     0     0    30  1.342     0     0     0
 2018 306   136   134     0     0    30  1.342     0     0     0
 2018 307   137   135     0     0    30  1.342     0     0     0
 2018 308   138   136     0     0    30  1.342     0     0     0
 2018 309   139   137     0     0    30  1.342     0     0     0
 2018 310   140   138     0     0    30  1.342     0     0     0
 2018 311   141   139     0     0    30  1.342     0     0     0
 2018 312   142   140     0     0    30  1.342     0     0     0
 2018 313   143   141     0     0    30  1.342     0     0     0
 2018 314   144   142     0     0    30  1.342     0     0     0
 2018 315   145   143     0     0    30  1.342     0     0     0
 2018 316   146   144     0     0    30  1.342     0     0     0
 2018 317   147   145     0     0    30  1.342     0     0     0
 2018 318   148   146     0     0    30  1.342     0     0     0
 2018 319   149   147     0     0    30  1.342     0     0     0
 2018 320   150   148     0     0    30  1.342     0     0     0
 2018 321   151   149     0     0    30  1.342     0     0     0
 2018 322   152   150     0     0    30  1.342     0     0     0
 2018 323   153   151     0     0    30  1.342     0     0     0
 2018 324   154   152     0     0    30  1.342     0     0     0
 2018 325   155   153     0     0    30  1.342     0     0     0
 2018 326   156   154     0     0    30  1.342     0     0     0
 2018 327   157   155     0     0    30  1.342     0     0     0
 2018 328   158   156     0     0    30  1.342     0     0     0
 2018 329   159   157     0     0    30  1.342     0     0     0
 2018 330   160   158     0     0    30  1.342     0     0     0
 2018 331   161   159     0     0    30  1.342     0     0     0
 2018 332   162   160     0     0    30  1.342     0     0     0
 2018 333   163   161     0     0    30  1.342     0     0     0
 2018 334   164   162     0     0    30  1.342     0     0     0
 2018 335   165   163     0     0    30  1.342     0     0     0
 2018 336   166   164     0     0    30  1.342     0     0     0
 2018 337   167   165     0     0    30  1.342     0     0     0
 2018 338   168   166     0     0    30  1.342     0     0     0
 2018 339   169   167     0     0    30  1.342     0     0     0
 2018 340   170   168     0     0    30  1.342     0     0     0
 2018 341   171   169     0     0    30  1.342     0     0     0
 2018 342   172   170     0     0    30  1.342     0     0     0
 2018 343   173   171     0     0    30  1.342     0     0     0
 2018 344   174   172     0     0    30  1.342     0     0     0
 2018 345   175   173     0     0    30  1.342     0     0     0
 2018 346   176   174     0     0    30  1.342     0     0     0
 2018 347   177   175     0     0    30  1.342     0     0     0
 2018 348   178   176     0     0    30  1.342     0     0     0
 2018 349   179   177     0     0    30  1.342     0     0     0
 2018 350   180   178     0     0    30  1.342     0     0     0
 2018 351   181   179     0     0    30  1.342     0     0     0
 2018 352   182   180     0     0    30  1.342     0     0     0
 2018 353   183   181     0     0    30  1.342     0     0     0
 2018 354   184   182     0     0    30  1.342     0     0     0
 2018 355   185   183     0     0    30  1.342     0     0     0
 2018 356   186   184     0     0    30  1.342     0     0     0
 2018 357   187   185     0     0    30  1.342     0     0     0
 2018 358   188   186     0     0    30  1.342     0     0     0
 2018 359   189   187     0     0    30  1.342     0     0     0
 2018 360   190   188     0     0    30  1.342     0     0     0
 2018 361   191   189     0     0    30  1.342     0     0     0
 2018 362   192   190     0     0    30  1.342     0     0     0
 2018 363   193   191     0     0    30  1.342     0     0     0
 2018 364   194   192     0     0    30  1.342     0     0     0
 2018 365   195   193     0     0    30  1.342     0     0     0
 2019 001   196   194     0     0    30  1.342     0     0     0
 2019 002   197   195     0     0    30  1.342     0     0     0
 2019 003   198   196     0     0    30  1.342     0     0     0
 2019 004   199   197     0     0    30  1.342     0     0     0
 2019 005   200   198     0     0    30  1.342     0     0     0
 2019 006   201   199     0     0    30  1.342     0     0     0
 2019 007   202   200     0     0    30  1.342     0     0     0
 2019 008   203   201     0     0    30  1.342     0     0     0
 2019 009   204   202     0     0    30  1.342     0     0     0
 2019 010   205   203     0     0    30  1.342     0     0     0
 2019 011   206   204     0     0    30  1.342     0     0     0
 2019 012   207   205     0     0    30  1.342     0     0     0
 2019 013   208   206     0     0    30  1.342     0     0     0
 2019 014   209   207     0     0    30  1.342     0     0     0
 2019 015   210   208     0     0    30  1.342     0     0     0
 2019 016   211   209     0     0    30  1.342     0     0     0
 2019 017   212   210     0     0    30  1.342     0     0     0
 2019 018   213   211     0     0    30  1.342     0     0     0
 2019 019   214   212     0     0    30  1.342     0     0     0
 2019 020   215   213     0     0    30  1.342     0     0     0
 2019 021   216   214     0     0    30  1.342     0     0     0
 2019 022   217   215     0     0    30  1.342     0     0     0
 2019 023   218   216     0     0    30  1.342     0     0     0
 2019 024   219   217     0     0    30  1.342     0     0     0
 2019 025   220   218     0     0    30  1.342     0     0     0
 2019 026   221   219     0     0    30  1.342     0     0     0
 2019 027   222   220     0     0    30  1.342     0     0     0
 2019 028   223   221     0     0    30  1.342     0     0     0
 2019 029   224   222     0     0    30  1.342     0     0     0
 2019 030   225   223     0     0    30  1.342     0     0     0
 2019 031   226   224     0     0    30  1.342     0     0     0
 2019 032   227   225     0     0    30  1.342     0     0     0
 2019 033   228   226     0     0    30  1.342     0     0     0
 2019 034   229   227     0     0    30  1.342     0     0     0
 2019 035   230   228     0     0    30  1.342     0     0     0
 2019 036   231   229     0     0    30  1.342     0     0     0
 2019 037   232   230     0     0    30  1.342     0     0     0
 2019 038   233   231     0     0    30  1.342     0     0     0
 2019 039   234   232     0     0    30  1.342     0     0     0
 2019 040   235   233     0     0    30  1.342     0     0     0
 2019 041   236   234     0     0    30  1.342     0     0     0
 2019 042   237   235     0     0    30  1.342     0     0     0
 2019 043   238   236     0     0    30  1.342     0     0     0
 2019 044   239   237     0     0    30  1.342     0     0     0
 2019 045   240   238     0     0    30  1.342     0     0     0
 2019 046   241   239     0     0    30  1.342     0     0     0
 2019 047   242   240     0     0    30  1.342     0     0     0
 2019 048   243   241     0     0    30  1.342     0     0     0
 2019 049   244   242     0     0    30  1.342     0     0     0
 2019 050   245   243     0     0    30  1.342     0     0     0
 2019 051   246   244     0     0    30  1.342     0     0     0
 2019 052   247   245     0     0    30  1.342     0     0     0
 2019 053   248   246     0     0    30  1.342     0     0     0
 2019 054   249   247     0     0    30  1.342     0     0     0
 2019 055   250   248     0     0    30  1.342     0     0     0
 2019 056   251   249     0     0    30  1.342     0     0     0
 2019 057   252   250     0     0    30  1.342     0     0     0
 2019 058   253   251     0     0    30  1.342     0     0     0
 2019 059   254   252     0     0    30  1.342     0     0     0
 2019 060   255   253     0     0    30  1.342     0     0     0
 2019 061   256   254     0     0    30  1.342     0     0     0
 2019 062   257   255     0     0    30  1.342     0     0     0
 2019 063   258   256     0     0    30  1.342     0     0     0
 2019 064   259   257     0     0    30  1.342     0     0     0
 2019 065   260   258     0     0    30  1.342     0     0     0
 2019 066   261   259     0     0    30  1.342     0     0     0
 2019 067   262   260     0     0    30  1.342     0     0     0
 2019 068   263   261     0     0    30  1.342     0     0     0
 2019 069   264   262     0     0    30  1.342     0     0     0
 2019 070   265   263     0     0    30  1.342     0     0     0
 2019 071   266   264     0     0    30  1.342     0     0     0
 2019 072   267   265     0     0    30  1.342     0     0     0
 2019 073   268   266     0     0    30  1.342     0     0     0
 2019 074   269   267     0     0    30  1.342     0     0     0
 2019 075   270   268     0     0    30  1.342     0     0     0
 2019 076   271   269     0     0    30  1.342     0     0     0
 2019 077   272   270     0     0    30  1.342     0     0     0
 2019 078   273   271     0     0    30  1.342     0     0     0
 2019 079   274   272     0     0    30  1.342     0     0     0
 2019 080   275   273     0     0    30  1.342     0     0     0
 2019 081   276   274     0     0    30  1.342     0     0     0
 2019 082   277   275     0     0    30  1.342     0     0     0
 2019 083   278   276     0     0    30  1.342     0     0     0
 2019 084   279   277     0     0    30  1.342     0     0     0
 2019 085   280   278     0     0    30  1.342     0     0     0
 2019 086   281   279     0     0    30  1.342     0     0     0
 2019 087   282   280     0     0    30  1.342     0     0     0
 2019 088   283   281     0     0    30  1.342     0     0     0
 2019 089   284   282     0     0    30  1.342     0     0     0
 2019 090   285   283     0     0    30  1.342     0     0     0
 2019 091   286   284     0     0    30  1.342     0     0     0
 2019 092   287   285     0     0    30  1.342     0     0     0
 2019 093   288   286     0     0    30  1.342     0     0     0
 2019 094   289   287     0     0    30  1.342     0     0     0
 2019 095   290   288     0     0    30  1.342     0     0     0
 2019 096   291   289     0     0    30  1.342     0     0     0
 2019 097   292   290     0     0    30  1.342     0     0     0
 2019 098   293   291     0     0    30  1.342     0     0     0
 2019 099   294   292     0     0    30  1.342     0     0     0
 2019 100   295   293     0     0    30  1.342     0     0     0
 2019 101   296   294     0     0    30  1.342     0     0     0
 2019 102   297   295     0     0    30  1.342     0     0     0
 2019 103   298   296     0     0    30  1.342     0     0     0
 2019 104   299   297     0     0    30  1.342     0     0     0
 2019 105   300   298     0     0    30  1.342     0     0     0
 2019 106   301   299     0     0    30  1.342     0     0     0
 2019 107   302   300     0     0    30  1.342     0     0     0
 2019 108   303   301     0     0    30  1.342     0     0     0
 2019 109   304   302     0     0    30  1.342     0     0     0
 2019 110   305   303     0     0    30  1.342     0     0     0
 2019 111   306   304     0     0    30  1.342     0     0     0
 2019 112   307   305     0     0    30  1.342     0     0     0
 2019 113   308   306     0     0    30  1.342     0     0     0
 2019 114   309   307     0     0    30  1.342     0     0     0
 2019 115   310   308     0     0    30  1.342     0     0     0
 2019 116   311   309     0     0    30  1.342     0     0     0
 2019 117   312   310     0     0    30  1.342     0     0     0
 2019 118   313   311     0     0    30  1.342     0     0     0
 2019 119   314   312     0     0    30  1.342     0     0     0
 2019 120   315   313     0     0    30  1.342     0     0     0
 2019 121   316   314     0     0    30  1.342     0     0     0
 2019 122   317   315     0     0    30  1.342     0     0     0
 2019 123   318   316     0     0    30  1.342     0     0     0
 2019 124   319   317     0     0    30  1.342     0     0     0
 2019 125   320   318     0     0    30  1.342     0     0     0
 2019 126   321   319     0     0    30  1.342     0     0     0
 2019 127   322   320     0     0    30  1.342     0     0     0
 2019 128   323   321     0     0    30  1.342     0     0     0
 2019 129   324   322     0     0    30  1.342     0     0     0
 2019 130   325   323     0     0    30  1.342     0     0     0
 2019 131   326   324     0     0    30  1.342     0     0     0
 2019 132   327   325     0     0    30  1.342     0     0     0
 2019 133   328   326     0     0    30  1.342     0     0     0
 2019 134   329   327     0     0    30  1.342     0     0     0
 2019 135   330   328     0     0    30  1.342     0     0     0
 2019 136   331   329     0     0    30  1.342     0     0     0
 2019 137   332   330     0     0    30  1.342     0     0     0
 2019 138   333   331     0     0    30  1.342     0     0     0
 2019 139   334   332     0     0    30  1.342     0     0     0
 2019 140   335   333     0     0    30  1.342     0     0     0
 2019 141   336   334     0     0    30  1.342     0     0     0
 2019 142   337   335     0     0    30  1.342     0     0     0
 2019 143   338   336     0     0    30  1.342     0     0     0
 2019 144   339   337     0     0    30  1.342     0     0     0
 2019 145   340   338     0     0    30  1.342     0     0     0
 2019 146   341   339     0     0    30  1.342     0     0     0
 2019 147   342   340     0     0    30  1.342     0     0     0
 2019 148   343   341     0     0    30  1.342     0     0     0
 2019 149   344   342     0     0    30  1.342     0     0     0
 2019 150   345   343     0     0    30  1.342     0     0     0
 2019 151   346   344     0     0    30  1.342     0     0     0
 2019 152   347   345     0     0    30  1.342     0     0     0
 2019 153   348   346     0     0    30  1.342     0     0     0
 2019 154   349   347     0     0    30  1.342     0     0     0
 2019 155   350   348     0     0    30  1.342     0     0     0
 2019 156   351   349     0     0    30  1.342     0     0     0
 2019 157   352   350     0     0    30  1.342     0     0     0
 2019 158   353   351     0     0    30  1.342     0     0     0
 2019 159   354   352     0     0    30  1.342     0     0     0
 2019 160   355   353     0     0    30  1.342     0     0     0
 2019 161   356   354     0     0    30  1.342     0     0     0
 2019 162   357   355     0     0    30  1.342     0     0     0
 2019 163   358   356     0     0    30  1.342     0     0     0
 2019 164   359   357     0     0    30  1.342     0     0     0
 2019 165   360   358     0     0    30  1.342     0     0     0
 2019 166   361   359     0     0    30  1.342     0     0     0
 2019 167   362   360     0     0    30  1.342     0     0     0
 2019 168   363   361     0     0    30  1.342     0     0     0
 2019 169   364   362     0     0    30  1.342     0     0     0
 2019 170   365   363     0     0    30  1.342     0     0     0
 2019 171   366   364     0     0    30  1.342     0     0     0
 2019 172   367   365     0     0    30  1.342     0     0     0

*DSSAT Cropping System Model Ver. 4.8.0.019 -develop  APR 08, 2023 12:34:38

*RUN   4        : IITA-TMS-IBA000070        CSYCA048 UYAG1901    1
 MODEL          : CSYCA048 - Cassava
 EXPERIMENT     : UYAG1901 CS UYT_GXE
 DATA PATH      :
 TREATMENT  1   : IITA-TMS-IBA000070        CSYCA048
  

@YEAR DOY   DAS   DAP  TL#C  TLDD DLYR3   TLBD  R#AC RESNC RESPC
 2019 150     1     0     0     0    30  1.342     0     0     0
 2019 151     2     0     0     0    30  1.342     0     0     0
 2019 152     3     1     0     0    30  1.342     0     0     0
 2019 153     4     2     0     0    30  1.342     0     0     0
 2019 154     5     3     0     0    30  1.342     0     0     0
 2019 155     6     4     0     0    30  1.342     0     0     0
 2019 156     7     5     0     0    30  1.342     0     0     0
 2019 157     8     6     0     0    30  1.342     0     0     0
 2019 158     9     7     0     0    30  1.342     0     0     0
 2019 159    10     8     0     0    30  1.342     0     0     0
 2019 160    11     9     0     0    30  1.342     0     0     0
 2019 161    12    10     0     0    30  1.342     0     0     0
 2019 162    13    11     0     0    30  1.342     0     0     0
 2019 163    14    12     0     0    30  1.342     0     0     0
 2019 164    15    13     0     0    30  1.342     0     0     0
 2019 165    16    14     0     0    30  1.342     0     0     0
 2019 166    17    15     0     0    30  1.342     0     0     0
 2019 167    18    16     0     0    30  1.342     0     0     0
 2019 168    19    17     0     0    30  1.342     0     0     0
 2019 169    20    18     0     0    30  1.342     0     0     0
 2019 170    21    19     0     0    30  1.342     0     0     0
 2019 171    22    20     0     0    30  1.342     0     0     0
 2019 172    23    21     0     0    30  1.342     0     0     0
 2019 173    24    22     0     0    30  1.342     0     0     0
 2019 174    25    23     0     0    30  1.342     0     0     0
 2019 175    26    24     0     0    30  1.342     0     0     0
 2019 176    27    25     0     0    30  1.342     0     0     0
 2019 177    28    26     0     0    30  1.342     0     0     0
 2019 178    29    27     0     0    30  1.342     0     0     0
 2019 179    30    28     0     0    30  1.342     0     0     0
 2019 180    31    29     0     0    30  1.342     0     0     0
 2019 181    32    30     0     0    30  1.342     0     0     0
 2019 182    33    31     0     0    30  1.342     0     0     0
 2019 183    34    32     0     0    30  1.342     0     0     0
 2019 184    35    33     0     0    30  1.342     0     0     0
 2019 185    36    34     0     0    30  1.342     0     0     0
 2019 186    37    35     0     0    30  1.342     0     0     0
 2019 187    38    36     0     0    30  1.342     0     0     0
 2019 188    39    37     0     0    30  1.342     0     0     0
 2019 189    40    38     0     0    30  1.342     0     0     0
 2019 190    41    39     0     0    30  1.342     0     0     0
 2019 191    42    40     0     0    30  1.342     0     0     0
 2019 192    43    41     0     0    30  1.342     0     0     0
 2019 193    44    42     0     0    30  1.342     0     0     0
 2019 194    45    43     0     0    30  1.342     0     0     0
 2019 195    46    44     0     0    30  1.342     0     0     0
 2019 196    47    45     0     0    30  1.342     0     0     0
 2019 197    48    46     0     0    30  1.342     0     0     0
 2019 198    49    47     0     0    30  1.342     0     0     0
 2019 199    50    48     0     0    30  1.342     0     0     0
 2019 200    51    49     0     0    30  1.342     0     0     0
 2019 201    52    50     0     0    30  1.342     0     0     0
 2019 202    53    51     0     0    30  1.342     0     0     0
 2019 203    54    52     0     0    30  1.342     0     0     0
 2019 204    55    53     0     0    30  1.342     0     0     0
 2019 205    56    54     0     0    30  1.342     0     0     0
 2019 206    57    55     0     0    30  1.342     0     0     0
 2019 207    58    56     0     0    30  1.342     0     0     0
 2019 208    59    57     0     0    30  1.342     0     0     0
 2019 209    60    58     0     0    30  1.342     0     0     0
 2019 210    61    59     0     0    30  1.342     0     0     0
 2019 211    62    60     0     0    30  1.342     0     0     0
 2019 212    63    61     0     0    30  1.342     0     0     0
 2019 213    64    62     0     0    30  1.342     0     0     0
 2019 214    65    63     0     0    30  1.342     0     0     0
 2019 215    66    64     0     0    30  1.342     0     0     0
 2019 216    67    65     0     0    30  1.342     0     0     0
 2019 217    68    66     0     0    30  1.342     0     0     0
 2019 218    69    67     0     0    30  1.342     0     0     0
 2019 219    70    68     0     0    30  1.342     0     0     0
 2019 220    71    69     0     0    30  1.342     0     0     0
 2019 221    72    70     0     0    30  1.342     0     0     0
 2019 222    73    71     0     0    30  1.342     0     0     0
 2019 223    74    72     0     0    30  1.342     0     0     0
 2019 224    75    73     0     0    30  1.342     0     0     0
 2019 225    76    74     0     0    30  1.342     0     0     0
 2019 226    77    75     0     0    30  1.342     0     0     0
 2019 227    78    76     0     0    30  1.342     0     0     0
 2019 228    79    77     0     0    30  1.342     0     0     0
 2019 229    80    78     0     0    30  1.342     0     0     0
 2019 230    81    79     0     0    30  1.342     0     0     0
 2019 231    82    80     0     0    30  1.342     0     0     0
 2019 232    83    81     0     0    30  1.342     0     0     0
 2019 233    84    82     0     0    30  1.342     0     0     0
 2019 234    85    83     0     0    30  1.342     0     0     0
 2019 235    86    84     0     0    30  1.342     0     0     0
 2019 236    87    85     0     0    30  1.342     0     0     0
 2019 237    88    86     0     0    30  1.342     0     0     0
 2019 238    89    87     0     0    30  1.342     0     0     0
 2019 239    90    88     0     0    30  1.342     0     0     0
 2019 240    91    89     0     0    30  1.342     0     0     0
 2019 241    92    90     0     0    30  1.342     0     0     0
 2019 242    93    91     0     0    30  1.342     0     0     0
 2019 243    94    92     0     0    30  1.342     0     0     0
 2019 244    95    93     0     0    30  1.342     0     0     0
 2019 245    96    94     0     0    30  1.342     0     0     0
 2019 246    97    95     0     0    30  1.342     0     0     0
 2019 247    98    96     0     0    30  1.342     0     0     0
 2019 248    99    97     0     0    30  1.342     0     0     0
 2019 249   100    98     0     0    30  1.342     0     0     0
 2019 250   101    99     0     0    30  1.342     0     0     0
 2019 251   102   100     0     0    30  1.342     0     0     0
 2019 252   103   101     0     0    30  1.342     0     0     0
 2019 253   104   102     0     0    30  1.342     0     0     0
 2019 254   105   103     0     0    30  1.342     0     0     0
 2019 255   106   104     0     0    30  1.342     0     0     0
 2019 256   107   105     0     0    30  1.342     0     0     0
 2019 257   108   106     0     0    30  1.342     0     0     0
 2019 258   109   107     0     0    30  1.342     0     0     0
 2019 259   110   108     0     0    30  1.342     0     0     0
 2019 260   111   109     0     0    30  1.342     0     0     0
 2019 261   112   110     0     0    30  1.342     0     0     0
 2019 262   113   111     0     0    30  1.342     0     0     0
 2019 263   114   112     0     0    30  1.342     0     0     0
[...]
 2019 275   103   101     0     0    30  1.272     0     0     0
 2019 276   104   102     0     0    30  1.272     0     0     0
 2019 277   105   103     0     0    30  1.272     0     0     0
 2019 278   106   104     0     0    30  1.272     0     0     0
 2019 279   107   105     0     0    30  1.272     0     0     0
 2019 280   108   106     0     0    30  1.272     0     0     0
 2019 281   109   107     0     0    30  1.272     0     0     0
 2019 282   110   108     0     0    30  1.272     0     0     0
 2019 283   111   109     0     0    30  1.272     0     0     0
 2019 284   112   110     0     0    30  1.272     0     0     0
 2019 285   113   111     0     0    30  1.272     0     0     0
 2019 286   114   112     0     0    30  1.272     0     0     0
 2019 287   115   113     0     0    30  1.272     0     0     0
 2019 288   116   114     0     0    30  1.272     0     0     0
 2019 289   117   115     0     0    30  1.272     0     0     0
 2019 290   118   116     0     0    30  1.272     0     0     0
 2019 291   119   117     0     0    30  1.272     0     0     0
 2019 292   120   118     0     0    30  1.272     0     0     0
 2019 293   121   119     0     0    30  1.272     0     0     0
 2019 294   122   120     0     0    30  1.272     0     0     0
 2019 295   123   121     0     0    30  1.272     0     0     0
 2019 296   124   122     0     0    30  1.272     0     0     0
 2019 297   125   123     0     0    30  1.272     0     0     0
 2019 298   126   124     0     0    30  1.272     0     0     0
 2019 299   127   125     0     0    30  1.272     0     0     0
 2019 300   128   126     0     0    30  1.272     0     0     0
 2019 301   129   127     0     0    30  1.272     0     0     0
 2019 302   130   128     0     0    30  1.272     0     0     0
 2019 303   131   129     0     0    30  1.272     0     0     0
 2019 304   132   130     0     0    30  1.272     0     0     0
 2019 305   133   131     0     0    30  1.272     0     0     0
 2019 306   134   132     0     0    30  1.272     0     0     0
 2019 307   135   133     0     0    30  1.272     0     0     0
 2019 308   136   134     0     0    30  1.272     0     0     0
 2019 309   137   135     0     0    30  1.272     0     0     0
 2019 310   138   136     0     0    30  1.272     0     0     0
 2019 311   139   137     0     0    30  1.272     0     0     0
 2019 312   140   138     0     0    30  1.272     0     0     0
 2019 313   141   139     0     0    30  1.272     0     0     0
 2019 314   142   140     0     0    30  1.272     0     0     0
 2019 315   143   141     0     0    30  1.272     0     0     0
 2019 316   144   142     0     0    30  1.272     0     0     0
 2019 317   145   143     0     0    30  1.272     0     0     0
 2019 318   146   144     0     0    30  1.272     0     0     0
 2019 319   147   145     0     0    30  1.272     0     0     0
 2019 320   148   146     0     0    30  1.272     0     0     0
 2019 321   149   147     0     0    30  1.272     0     0     0
 2019 322   150   148     0     0    30  1.272     0     0     0
 2019 323   151   149     0     0    30  1.272     0     0     0
 2019 324   152   150     0     0    30  1.272     0     0     0
 2019 325   153   151     0     0    30  1.272     0     0     0
 2019 326   154   152     0     0    30  1.272     0     0     0
 2019 327   155   153     0     0    30  1.272     0     0     0
 2019 328   156   154     0     0    30  1.272     0     0     0
 2019 329   157   155     0     0    30  1.272     0     0     0
 2019 330   158   156     0     0    30  1.272     0     0     0
 2019 331   159   157     0     0    30  1.272     0     0     0
 2019 332   160   158     0     0    30  1.272     0     0     0
 2019 333   161   159     0     0    30  1.272     0     0     0
 2019 334   162   160     0     0    30  1.272     0     0     0
 2019 335   163   161     0     0    30  1.272     0     0     0
 2019 336   164   162     0     0    30  1.272     0     0     0
 2019 337   165   163     0     0    30  1.272     0     0     0
 2019 338   166   164     0     0    30  1.272     0     0     0
 2019 339   167   165     0     0    30  1.272     0     0     0
 2019 340   168   166     0     0    30  1.272     0     0     0
 2019 341   169   167     0     0    30  1.272     0     0     0
 2019 342   170   168     0     0    30  1.272     0     0     0
 2019 343   171   169     0     0    30  1.272     0     0     0
 2019 344   172   170     0     0    30  1.272     0     0     0
 2019 345   173   171     0     0    30  1.272     0     0     0
 2019 346   174   172     0     0    30  1.272     0     0     0
 2019 347   175   173     0     0    30  1.272     0     0     0
 2019 348   176   174     0     0    30  1.272     0     0     0
 2019 349   177   175     0     0    30  1.272     0     0     0
 2019 350   178   176     0     0    30  1.272     0     0     0
 2019 351   179   177     0     0    30  1.272     0     0     0
 2019 352   180   178     0     0    30  1.272     0     0     0
 2019 353   181   179     0     0    30  1.272     0     0     0
 2019 354   182   180     0     0    30  1.272     0     0     0
 2019 355   183   181     0     0    30  1.272     0     0     0
 2019 356   184   182     0     0    30  1.272     0     0     0
 2019 357   185   183     0     0    30  1.272     0     0     0
 2019 358   186   184     0     0    30  1.272     0     0     0
 2019 359   187   185     0     0    30  1.272     0     0     0
 2019 360   188   186     0     0    30  1.272     0     0     0
 2019 361   189   187     0     0    30  1.272     0     0     0
 2019 362   190   188     0     0    30  1.272     0     0     0
 2019 363   191   189     0     0    30  1.272     0     0     0
 2019 364   192   190     0     0    30  1.272     0     0     0
 2019 365   193   191     0     0    30  1.272     0     0     0
 2020 001   194   192     0     0    30  1.272     0     0     0
 2020 002   195   193     0     0    30  1.272     0     0     0
 2020 003   196   194     0     0    30  1.272     0     0     0
 2020 004   197   195     0     0    30  1.272     0     0     0
 2020 005   198   196     0     0    30  1.272     0     0     0
 2020 006   199   197     0     0    30  1.272     0     0     0
 2020 007   200   198     0     0    30  1.272     0     0     0
 2020 008   201   199     0     0    30  1.272     0     0     0
 2020 009   202   200     0     0    30  1.272     0     0     0
 2020 010   203   201     0     0    30  1.272     0     0     0
 2020 011   204   202     0     0    30  1.272     0     0     0
 2020 012   205   203     0     0    30  1.272     0     0     0
 2020 013   206   204     0     0    30  1.272     0     0     0
 2020 014   207   205     0     0    30  1.272     0     0     0
 2020 015   208   206     0     0    30  1.272     0     0     0
 2020 016   209   207     0     0    30  1.272     0     0     0
 2020 017   210   208     0     0    30  1.272     0     0     0
 2020 018   211   209     0     0    30  1.272     0     0     0
 2020 019   212   210     0     0    30  1.272     0     0     0
 2020 020   213   211     0     0    30  1.272     0     0     0
 2020 021   214   212     0     0    30  1.272     0     0     0
 2020 022   215   213     0     0    30  1.272     0     0     0
 2020 023   216   214     0     0    30  1.272     0     0     0
 2020 024   217   215     0     0    30  1.272     0     0     0
 2020 025   218   216     0     0    30  1.272     0     0     0
 2020 026   219   217     0     0    30  1.272     0     0     0
 2020 027   220   218     0     0    30  1.272     0     0     0
 2020 028   221   219     0     0    30  1.272     0     0     0
 2020 029   222   220     0     0    30  1.272     0     0     0
 2020 030   223   221     0     0    30  1.272     0     0     0
 2020 031   224   222     0     0    30  1.272     0     0     0
 2020 032   225   223     0     0    30  1.272     0     0     0
 2020 033   226   224     0     0    30  1.272     0     0     0
 2020 034   227   225     0     0    30  1.272     0     0     0
 2020 035   228   226     0     0    30  1.272     0     0     0
 2020 036   229   227     0     0    30  1.272     0     0     0
 2020 037   230   228     0     0    30  1.272     0     0     0
 2020 038   231   229     0     0    30  1.272     0     0     0
 2020 039   232   230     0     0    30  1.272     0     0     0
 2020 040   233   231     0     0    30  1.272     0     0     0
 2020 041   234   232     0     0    30  1.272     0     0     0
 2020 042   235   233     0     0    30  1.272     0     0     0
 2020 043   236   234     0     0    30  1.272     0     0     0
 2020 044   237   235     0     0    30  1.272     0     0     0
 2020 045   238   236     0     0    30  1.272     0     0     0
 2020 046   239   237     0     0    30  1.272     0     0     0
 2020 047   240   238     0     0    30  1.272     0     0     0
 2020 048   241   239     0     0    30  1.272     0     0     0
 2020 049   242   240     0     0    30  1.272     0     0     0
 2020 050   243   241     0     0    30  1.272     0     0     0
 2020 051   244   242     0     0    30  1.272     0     0     0
 2020 052   245   243     0     0    30  1.272     0     0     0
 2020 053   246   244     0     0    30  1.272     0     0     0
 2020 054   247   245     0     0    30  1.272     0     0     0
 2020 055   248   246     0     0    30  1.272     0     0     0
 2020 056   249   247     0     0    30  1.272     0     0     0
 2020 057   250   248     0     0    30  1.272     0     0     0
 2020 058   251   249     0     0    30  1.272     0     0     0
 2020 059   252   250     0     0    30  1.272     0     0     0
 2020 060   253   251     0     0    30  1.272     0     0     0
 2020 061   254   252     0     0    30  1.272     0     0     0
 2020 062   255   253     0     0    30  1.272     0     0     0
 2020 063   256   254     0     0    30  1.272     0     0     0
 2020 064   257   255     0     0    30  1.272     0     0     0
 2020 065   258   256     0     0    30  1.272     0     0     0
 2020 066   259   257     0     0    30  1.272     0     0     0
 2020 067   260   258     0     0    30  1.272     0     0     0
 2020 068   261   259     0     0    30  1.272     0     0     0
 2020 069   262   260     0     0    30  1.272     0     0     0
 2020 070   263   261     0     0    30  1.272     0     0     0
 2020 071   264   262     0     0    30  1.272     0     0     0
 2020 072   265   263     0     0    30  1.272     0     0     0
 2020 073   266   264     0     0    30  1.272     0     0     0
 2020 074   267   265     0     0    30  1.272     0     0     0
 2020 075   268   266     0     0    30  1.272     0     0     0
 2020 076   269   267     0     0    30  1.272     0     0     0
 2020 077   270   268     0     0    30  1.272     0     0     0
 2020 078   271   269     0     0    30  1.272     0     0     0
 2020 079   272   270     0     0    30  1.272     0     0     0
 2020 080   273   271     0     0    30  1.272     0     0     0
 2020 081   274   272     0     0    30  1.272     0     0     0
 2020 082   275   273     0     0    30  1.272     0     0     0
 2020 083   276   274     0     0    30  1.272     0     0     0
 2020 084   277   275     0     0    30  1.272     0     0     0
 2020 085   278   276     0     0    30  1.272     0     0     0
 2020 086   279   277     0     0    30  1.272     0     0     0
 2020 087   280   278     0     0    30  1.272     0     0     0
 2020 088   281   279     0     0    30  1.272     0     0     0
 2020 089   282   280     0     0    30  1.272     0     0     0
 2020 090   283   281     0     0    30  1.272     0     0     0
 2020 091   284   282     0     0    30  1.272     0     0     0
 2020 092   285   283     0     0    30  1.272     0     0     0
 2020 093   286   284     0     0    30  1.272     0     0     0
 2020 094   287   285     0     0    30  1.272     0     0     0
 2020 095   288   286     0     0    30  1.272     0     0     0
 2020 096   289   287     0     0    30  1.272     0     0     0
 2020 097   290   288     0     0    30  1.272     0     0     0
 2020 098   291   289     0     0    30  1.272     0     0     0
 2020 099   292   290     0     0    30  1.272     0     0     0
 2020 100   293   291     0     0    30  1.272     0     0     0
 2020 101   294   292     0     0    30  1.272     0     0     0
 2020 102   295   293     0     0    30  1.272     0     0     0
 2020 103   296   294     0     0    30  1.272     0     0     0
 2020 104   297   295     0     0    30  1.272     0     0     0
 2020 105   298   296     0     0    30  1.272     0     0     0
 2020 106   299   297     0     0    30  1.272     0     0     0
 2020 107   300   298     0     0    30  1.272     0     0     0
 2020 108   301   299     0     0    30  1.272     0     0     0
 2020 109   302   300     0     0    30  1.272     0     0     0
 2020 110   303   301     0     0    30  1.272     0     0     0
 2020 111   304   302     0     0    30  1.272     0     0     0
 2020 112   305   303     0     0    30  1.272     0     0     0
 2020 113   306   304     0     0    30  1.272     0     0     0
 2020 114   307   305     0     0    30  1.272     0     0     0
 2020 115   308   306     0     0    30  1.272     0     0     0
 2020 116   309   307     0     0    30  1.272     0     0     0
 2020 117   310   308     0     0    30  1.272     0     0     0
 2020 118   311   309     0     0    30  1.272     0     0     0
 2020 119   312   310     0     0    30  1.272     0     0     0
 2020 120   313   311     0     0    30  1.272     0     0     0
 2020 121   314   312     0     0    30  1.272     0     0     0
 2020 122   315   313     0     0    30  1.272     0     0     0
 2020 123   316   314     0     0    30  1.272     0     0     0
 2020 124   317   315     0     0    30  1.272     0     0     0
 2020 125   318   316     0     0    30  1.272     0     0     0
 2020 126   319   317     0     0    30  1.272     0     0     0
 2020 127   320   318     0     0    30  1.272     0     0     0
 2020 128   321   319     0     0    30  1.272     0     0     0
 2020 129   322   320     0     0    30  1.272     0     0     0
 2020 130   323   321     0     0    30  1.272     0     0     0
 2020 131   324   322     0     0    30  1.272     0     0     0
 2020 132   325   323     0     0    30  1.272     0     0     0
 2020 133   326   324     0     0    30  1.272     0     0     0
 2020 134   327   325     0     0    30  1.272     0     0     0
 2020 135   328   326     0     0    30  1.272     0     0     0
 2020 136   329   327     0     0    30  1.272     0     0     0
 2020 137   330   328     0     0    30  1.272     0     0     0
 2020 138   331   329     0     0    30  1.272     0     0     0
 2020 139   332   330     0     0    30  1.272     0     0     0
 2020 140   333   331     0     0    30  1.272     0     0     0
 2020 141   334   332     0     0    30  1.272     0     0     0
 2020 142   335   333     0     0    30  1.272     0     0     0
 2020 143   336   334     0     0    30  1.272     0     0     0
 2020 144   337   335     0     0    30  1.272     0     0     0
 2020 145   338   336     0     0    30  1.272     0     0     0
 2020 146   339   337     0     0    30  1.272     0     0     0
 2020 147   340   338     0     0    30  1.272     0     0     0
 2020 148   341   339     0     0    30  1.272     0     0     0
 2020 149   342   340     0     0    30  1.272     0     0     0
 2020 150   343   341     0     0    30  1.272     0     0     0
 2020 151   344   342     0     0    30  1.272     0     0     0
 2020 152   345   343     0     0    30  1.272     0     0     0
 2020 153   346   344     0     0    30  1.272     0     0     0
 2020 154   347   345     0     0    30  1.272     0     0     0
 2020 155   348   346     0     0    30  1.272     0     0     0
 2020 156   349   347     0     0    30  1.272     0     0     0
 2020 157   350   348     0     0    30  1.272     0     0     0
 2020 158   351   349     0     0    30  1.272     0     0     0
 2020 159   352   350     0     0    30  1.272     0     0     0
 2020 160   353   351     0     0    30  1.272     0     0     0
 2020 161   354   352     0     0    30  1.272     0     0     0
 2020 162   355   353     0     0    30  1.272     0     0     0
 2020 163   356   354     0     0    30  1.272     0     0     0
 2020 164   357   355     0     0    30  1.272     0     0     0
 2020 165   358   356     0     0    30  1.272     0     0     0
 2020 166   359   357     0     0    30  1.272     0     0     0
 2020 167   360   358     0     0    30  1.272     0     0     0
 2020 168   361   359     0     0    30  1.272     0     0     0
 2020 169   362   360     0     0    30  1.272     0     0     0
 2020 170   363   361     0     0    30  1.272     0     0     0
 2020 171   364   362     0     0    30  1.272     0     0     0
 2020 172   365   363     0     0    30  1.272     0     0     0
 2020 173   366   364     0     0    30  1.272     0     0     0
 2020 174   367   365     0     0    30  1.272     0     0     0
 2020 175   368   366     0     0    30  1.272     0     0     0
 2020 176   369   367     0     0    30  1.272     0     0     0
 2020 177   370   368     0     0    30  1.272     0     0     0
 2020 178   371   369     0     0    30  1.272     0     0     0
 2020 179   372   370     0     0    30  1.272     0     0     0
 2020 180   373   371     0     0    30  1.272     0     0     0
 2020 181   374   372     0     0    30  1.272     0     0     0
 2020 182   375   373     0     0    30  1.272     0     0     0
 2020 183   376   374     0     0    30  1.272     0     0     0
 2020 184   377   375     0     0    30  1.272     0     0     0
 2020 185   378   376     0     0    30  1.272     0     0     0
 2020 186   379   377     0     0    30  1.272     0     0     0
 2020 187   380   378     0     0    30  1.272     0     0     0
 2020 188   381   379     0     0    30  1.272     0     0     0
 2020 189   382   380     0     0    30  1.272     0     0     0
 2020 190   383   381     0     0    30  1.272     0     0     0
 2020 191   384   382     0     0    30  1.272     0     0     0
 2020 192   385   383     0     0    30  1.272     0     0     0
 2020 193   386   384     0     0    30  1.272     0     0     0
 2020 194   387   385     0     0    30  1.272     0     0     0
 2020 195   388   386     0     0    30  1.272     0     0     0
 2020 196   389   387     0     0    30  1.272     0     0     0
 2020 197   390   388     0     0    30  1.272     0     0     0
 2020 198   391   389     0     0    30  1.272     0     0     0
 2020 199   392   390     0     0    30  1.272     0     0     0
 2020 200   393   391     0     0    30  1.272     0     0     0
 2020 201   394   392     0     0    30  1.272     0     0     0
 2020 202   395   393     0     0    30  1.272     0     0     0
 2020 203   396   394     0     0    30  1.272     0     0     0
 2020 204   397   395     0     0    30  1.272     0     0     0
 2020 205   398   396     0     0    30  1.272     0     0     0
 2020 206   399   397     0     0    30  1.272     0     0     0
 2020 207   400   398     0     0    30  1.272     0     0     0
 2020 208   401   399     0     0    30  1.272     0     0     0
 2020 209   402   400     0     0    30  1.272     0     0     0
 2020 210   403   401     0     0    30  1.272     0     0     0
 2020 211   404   402     0     0    30  1.272     0     0     0
 2020 212   405   403     0     0    30  1.272     0     0     0
 2020 213   406   404     0     0    30  1.272     0     0     0
 2020 214   407   405     0     0    30  1.272     0     0     0
 2020 215   408   406     0     0    30  1.272     0     0     0
 2020 216   409   407     0     0    30  1.272     0     0     0
