*Surface Mulch daily output file

*DSSAT Cropping System Model Ver. 4.8.0.019 -develop  APR 08, 2023 12:34:37

*RUN   1        : IITA-TMS-IBA000070        CSYCA048 UYAB1901    1
 MODEL          : CSYCA048 - Cassava
 EXPERIMENT     : UYAB1901 CS UYT_GXE
 DATA PATH      :
 TREATMENT  1   : IITA-TMS-IBA000070        CSYCA048
  
@YEAR DOY   DAS    MCFD   MDEPD    MWAD    MWTD
 2019 167     0   0.000    0.00       0    0.00
 2019 168     1   0.000    0.00       0    0.00
 2019 169     2   0.000    0.00       0    0.00
 2019 170     3   0.000    0.00       0    0.00
 2019 171     4   0.000    0.00       0    0.00
 2019 172     5   0.000    0.00       0    0.00
 2019 173     6   0.000    0.00       0    0.00
 2019 174     7   0.000    0.00       0    0.00
 2019 175     8   0.000    0.00       0    0.00
 2019 176     9   0.000    0.00       0    0.00
 2019 177    10   0.000    0.00       0    0.00
 2019 178    11   0.000    0.00       0    0.00
 2019 179    12   0.000    0.00       0    0.00
 2019 180    13   0.000    0.00       0    0.00
 2019 181    14   0.000    0.00       0    0.00
 2019 182    15   0.000    0.00       0    0.00
 2019 183    16   0.000    0.00       0    0.00
 2019 184    17   0.000    0.00       0    0.00
 2019 185    18   0.000    0.00       0    0.00
 2019 186    19   0.000    0.00       0    0.00
 2019 187    20   0.000    0.00       0    0.00
 2019 188    21   0.000    0.00       0    0.00
 2019 189    22   0.000    0.00       0    0.00
 2019 190    23   0.000    0.00       0    0.00
 2019 191    24   0.000    0.00       0    0.00
 2019 192    25   0.000    0.00       0    0.00
 2019 193    26   0.000    0.00       0    0.00
 2019 194    27   0.000    0.00       0    0.00
 2019 195    28   0.000    0.00       0    0.00
 2019 196    29   0.000    0.00       0    0.00
 2019 197    30   0.000    0.00       0    0.00
 2019 198    31   0.000    0.00       0    0.00
 2019 199    32   0.000    0.00       0    0.00
 2019 200    33   0.000    0.00       0    0.00
 2019 201    34   0.000    0.00       0    0.00
 2019 202    35   0.000    0.00       0    0.00
 2019 203    36   0.000    0.00       0    0.00
 2019 204    37   0.000    0.00       0    0.00
 2019 205    38   0.000    0.00       0    0.00
 2019 206    39   0.000    0.00       0    0.00
 2019 207    40   0.000    0.00       0    0.00
 2019 208    41   0.000    0.00       0    0.00
 2019 209    42   0.000    0.00       0    0.00
 2019 210    43   0.000    0.00       0    0.00
 2019 211    44   0.000    0.00       0    0.00
 2019 212    45   0.000    0.00       0    0.00
 2019 213    46   0.000    0.00       0    0.00
 2019 214    47   0.000    0.00       0    0.00
 2019 215    48   0.000    0.00       0    0.00
 2019 216    49   0.000    0.00       0    0.00
 2019 217    50   0.000    0.00       0    0.00
 2019 218    51   0.000    0.00       0    0.00
 2019 219    52   0.000    0.00       0    0.00
 2019 220    53   0.000    0.00       0    0.00
 2019 221    54   0.000    0.00       0    0.00
 2019 222    55   0.000    0.00       0    0.00
 2019 223    56   0.000    0.00       0    0.00
 2019 224    57   0.000    0.00       0    0.00
 2019 225    58   0.000    0.00       0    0.00
 2019 226    59   0.000    0.00       0    0.00
 2019 227    60   0.000    0.00       0    0.00
 2019 228    61   0.000    0.00       0    0.00
 2019 229    62   0.000    0.00       0    0.00
 2019 230    63   0.000    0.00       0    0.00
 2019 231    64   0.000    0.00       0    0.00
 2019 232    65   0.000    0.00       0    0.00
 2019 233    66   0.000    0.00       0    0.00
 2019 234    67   0.000    0.00       0    0.00
 2019 235    68   0.000    0.00       0    0.00
 2019 236    69   0.000    0.00       0    0.00
 2019 237    70   0.000    0.00       0    0.00
 2019 238    71   0.000    0.00       0    0.00
 2019 239    72   0.000    0.00       0    0.00
 2019 240    73   0.000    0.00       0    0.00
 2019 241    74   0.000    0.00       0    0.00
 2019 242    75   0.000    0.00       0    0.00
 2019 243    76   0.000    0.00       0    0.00
 2019 244    77   0.000    0.00       0    0.00
 2019 245    78   0.000    0.00       0    0.00
 2019 246    79   0.000    0.00       0    0.00
 2019 247    80   0.000    0.00       0    0.00
 2019 248    81   0.000    0.00       0    0.00
 2019 249    82   0.000    0.00       0    0.00
 2019 250    83   0.000    0.00       0    0.00
 2019 251    84   0.000    0.00       0    0.00
 2019 252    85   0.000    0.00       0    0.00
 2019 253    86   0.000    0.00       0    0.00
 2019 254    87   0.000    0.00       0    0.00
 2019 255    88   0.000    0.00       0    0.00
 2019 256    89   0.000    0.00       0    0.00
 2019 257    90   0.000    0.00       0    0.00
 2019 258    91   0.000    0.00       0    0.00
 2019 259    92   0.000    0.00       0    0.00
 2019 260    93   0.000    0.00       0    0.00
 2019 261    94   0.000    0.00       0    0.00
 2019 262    95   0.000    0.00       0    0.00
 2019 263    96   0.000    0.00       0    0.00
 2019 264    97   0.000    0.00       0    0.00
 2019 265    98   0.000    0.00       0    0.00
 2019 266    99   0.000    0.00       0    0.00
 2019 267   100   0.000    0.00       0    0.00
 2019 268   101   0.000    0.00       0    0.00
 2019 269   102   0.000    0.00       0    0.00
 2019 270   103   0.000    0.00       0    0.00
 2019 271   104   0.000    0.00       0    0.00
 2019 272   105   0.000    0.00       0    0.00
 2019 273   106   0.000    0.00       0    0.00
 2019 274   107   0.000    0.00       0    0.00
 2019 275   108   0.000    0.00       0    0.00
 2019 276   109   0.000    0.00       0    0.00
 2019 277   110   0.000    0.00       0    0.00
 2019 278   111   0.000    0.00       0    0.00
 2019 279   112   0.000    0.00       0    0.00
 2019 280   113   0.000    0.00       0    0.00
 2019 281   114   0.000    0.00       0    0.00
 2019 282   115   0.000    0.00       0    0.00
 2019 283   116   0.000    0.00       0    0.00
 2019 284   117   0.000    0.00       0    0.00
 2019 285   118   0.000    0.00       0    0.00
 2019 286   119   0.000    0.00       0    0.00
 2019 287   120   0.000    0.00       0    0.00
 2019 288   121   0.000    0.00       0    0.00
 2019 289   122   0.000    0.00       0    0.00
 2019 290   123   0.000    0.00       0    0.00
 2019 291   124   0.000    0.00       0    0.00
 2019 292   125   0.000    0.00       0    0.00
 2019 293   126   0.000    0.00       0    0.00
 2019 294   127   0.000    0.00       0    0.00
 2019 295   128   0.000    0.00       0    0.00
 2019 296   129   0.000    0.00       0    0.00
 2019 297   130   0.000    0.00       0    0.00
 2019 298   131   0.000    0.00       0    0.00
 2019 299   132   0.000    0.00       0    0.00
 2019 300   133   0.000    0.00       0    0.00
 2019 301   134   0.000    0.00       0    0.00
 2019 302   135   0.000    0.00       0    0.00
 2019 303   136   0.000    0.00       0    0.00
 2019 304   137   0.000    0.00       0    0.00
 2019 305   138   0.000    0.00       0    0.00
 2019 306   139   0.000    0.00       0    0.00
 2019 307   140   0.000    0.00       0    0.00
 2019 308   141   0.000    0.00       0    0.00
 2019 309   142   0.000    0.00       0    0.00
 2019 310   143   0.000    0.00       0    0.00
 2019 311   144   0.000    0.00       0    0.00
 2019 312   145   0.000    0.00       0    0.00
 2019 313   146   0.000    0.00       0    0.00
 2019 314   147   0.000    0.00       0    0.00
 2019 315   148   0.000    0.00       0    0.00
 2019 316   149   0.000    0.00       0    0.00
 2019 317   150   0.000    0.00       0    0.00
 2019 318   151   0.000    0.00       0    0.00
 2019 319   152   0.000    0.00       0    0.00
 2019 320   153   0.000    0.00       0    0.00
 2019 321   154   0.000    0.00       0    0.00
 2019 322   155   0.000    0.00       0    0.00
 2019 323   156   0.000    0.00       0    0.00
 2019 324   157   0.000    0.00       0    0.00
 2019 325   158   0.000    0.00       0    0.00
 2019 326   159   0.000    0.00       0    0.00
 2019 327   160   0.000    0.00       1    0.00
 2019 328   161   0.001    0.00       4    0.00
 2019 329   162   0.003    0.00       8    0.00
 2019 330   163   0.005    0.00      15    0.00
 2019 331   164   0.007    0.00      23    0.00
 2019 332   165   0.010    0.00      31    0.00
 2019 333   166   0.013    0.00      40    0.00
 2019 334   167   0.015    0.00      48    0.01
 2019 335   168   0.018    0.00      56    0.01
 2019 336   169   0.021    0.00      66    0.01
 2019 337   170   0.024    0.00      75    0.01
 2019 338   171   0.026    0.00      84    0.01
 2019 339   172   0.029    0.00      93    0.01
 2019 340   173   0.031    0.00     100    0.01
 2019 341   174   0.033    0.00     106    0.01
 2019 342   175   0.035    0.00     111    0.01
 2019 343   176   0.037    0.00     117    0.01
 2019 344   177   0.038    0.00     122    0.01
 2019 345   178   0.040    0.00     127    0.01
 2019 346   179   0.041    0.00     132    0.01
 2019 347   180   0.043    0.00     137    0.01
 2019 348   181   0.044    0.00     142    0.01
 2019 349   182   0.046    0.00     147    0.01
 2019 350   183   0.048    0.00     152    0.01
 2019 351   184   0.049    0.00     158    0.01
 2019 352   185   0.051    0.00     164    0.01
 2019 353   186   0.054    0.00     172    0.01
 2019 354   187   0.056    0.00     180    0.02
 2019 355   188   0.058    0.00     187    0.02
 2019 356   189   0.060    0.00     193    0.02
 2019 357   190   0.062    0.00     199    0.02
 2019 358   191   0.064    0.00     205    0.02
 2019 359   192   0.066    0.00     212    0.02
 2019 360   193   0.068    0.00     220    0.02
 2019 361   194   0.071    0.00     229    0.02
 2019 362   195   0.073    0.00     237    0.02
 2019 363   196   0.075    0.00     245    0.02
 2019 364   197   0.078    0.00     253    0.02
 2019 365   198   0.080    0.00     260    0.02
 2020 001   199   0.082    0.01     268    0.02
 2020 002   200   0.085    0.01     276    0.02
 2020 003   201   0.087    0.01     283    0.02
 2020 004   202   0.089    0.01     291    0.02
 2020 005   203   0.092    0.01     300    0.02
 2020 006   204   0.095    0.01     311    0.02
 2020 007   205   0.098    0.01     323    0.02
 2020 008   206   0.102    0.01     335    0.02
 2020 009   207   0.105    0.01     347    0.02
 2020 010   208   0.109    0.01     361    0.02
 2020 011   209   0.113    0.01     375    0.02
 2020 012   210   0.117    0.01     389    0.02
 2020 013   211   0.121    0.01     404    0.02
 2020 014   212   0.126    0.01     420    0.02
 2020 015   213   0.130    0.01     436    0.02
 2020 016   214   0.135    0.01     454    0.02
 2020 017   215   0.139    0.02     469    0.02
 2020 018   216   0.144    0.02     485    0.02
 2020 019   217   0.149    0.02     503    0.02
 2020 020   218   0.153    0.02     520    0.02
 2020 021   219   0.158    0.02     537    0.02
 2020 022   220   0.162    0.02     554    0.02
 2020 023   221   0.167    0.02     570    0.02
 2020 024   222   0.171    0.02     586    0.02
 2020 025   223   0.175    0.03     600    0.02
 2020 026   224   0.178    0.03     612    0.02
 2020 027   225   0.181    0.03     625    0.02
 2020 028   226   0.184    0.03     637    0.01
 2020 029   227   0.188    0.03     649    0.01
 2020 030   228   0.191    0.03     663    0.01
 2020 031   229   0.194    0.03     675    0.01
 2020 032   230   0.197    0.03     686    0.01
 2020 033   231   0.200    0.03     697    0.01
 2020 034   232   0.203    0.04     708    0.01
 2020 035   233   0.205    0.04     718    0.01
 2020 036   234   0.208    0.04     729    0.01
 2020 037   235   0.211    0.04     739    0.01
 2020 038   236   0.213    0.04     750    0.01
 2020 039   237   0.216    0.04     760    0.01
 2020 040   238   0.219    0.04     772    0.01
 2020 041   239   0.221    0.04     782    0.01
 2020 042   240   0.224    0.04     790    0.01
 2020 043   241   0.226    0.05     801    0.01
 2020 044   242   0.228    0.05     808    0.01
 2020 045   243   0.230    0.05     817    0.01
 2020 046   244   0.232    0.05     825    0.01
 2020 047   245   0.234    0.05     833    0.01
 2020 048   246   0.236    0.05     841    0.01
 2020 049   247   0.238    0.05     848    0.01
 2020 050   248   0.240    0.05     856    0.01
 2020 051   249   0.241    0.05     863    0.01
 2020 052   250   0.243    0.05     871    0.01
 2020 053   251   0.245    0.05     878    0.01
 2020 054   252   0.247    0.05     886    0.01
 2020 055   253   0.249    0.06     893    0.01
 2020 056   254   0.250    0.06     900    0.01
 2020 057   255   0.252    0.06     907    0.00
 2020 058   256   0.253    0.06     912    0.00
 2020 059   257   0.254    0.06     918    0.00
 2020 060   258   0.256    0.06     923    0.00
 2020 061   259   0.257    0.06     929    0.00
 2020 062   260   0.258    0.06     934    0.00
 2020 063   261   0.259    0.06     939    0.03
 2020 064   262   0.260    0.06     943    0.05
 2020 065   263   0.261    0.06     946    0.04
 2020 066   264   0.262    0.06     949    0.03
 2020 067   265   0.263    0.06     952    0.02
 2020 068   266   0.263    0.06     955    0.02
 2020 069   267   0.264    0.06     959    0.02
 2020 070   268   0.265    0.06     964    0.04
 2020 071   269   0.266    0.06     967    0.06
 2020 072   270   0.267    0.07     969    0.07
 2020 073   271   0.267    0.07     972    0.06
 2020 074   272   0.268    0.07     973    0.04
 2020 075   273   0.268    0.07     974    0.03
 2020 076   274   0.268    0.07     976    0.03
 2020 077   275   0.269    0.07     978    0.02
 2020 078   276   0.269    0.07     979    0.02
 2020 079   277   0.269    0.07     980    0.04
 2020 080   278   0.270    0.07     982    0.06
 2020 081   279   0.270    0.07     983    0.10
 2020 082   280   0.270    0.07     983    0.26
 2020 083   281   0.270    0.07     984    0.23
 2020 084   282   0.270    0.07     985    0.27
 2020 085   283   0.271    0.07     986    0.26
 2020 086   284   0.271    0.07     987    0.27
 2020 087   285   0.271    0.07     987    0.21
 2020 088   286   0.271    0.07     987    0.24
 2020 089   287   0.271    0.07     987    0.26
 2020 090   288   0.271    0.07     988    0.26
 2020 091   289   0.271    0.07     989    0.27
 2020 092   290   0.271    0.07     989    0.26
 2020 093   291   0.272    0.07     990    0.25
 2020 094   292   0.272    0.07     990    0.27
 2020 095   293   0.272    0.07     990    0.26
 2020 096   294   0.272    0.07     990    0.27
 2020 097   295   0.272    0.07     990    0.27
 2020 098   296   0.272    0.07     990    0.27
 2020 099   297   0.272    0.07     990    0.27
 2020 100   298   0.272    0.07     990    0.27
 2020 101   299   0.272    0.07     990    0.27
 2020 102   300   0.272    0.07     990    0.27
 2020 103   301   0.272    0.07     990    0.23
 2020 104   302   0.272    0.07     990    0.28
 2020 105   303   0.272    0.07     990    0.26
 2020 106   304   0.272    0.07     990    0.27
 2020 107   305   0.272    0.07     990    0.21
 2020 108   306   0.272    0.07     990    0.16
 2020 109   307   0.272    0.07     990    0.12
 2020 110   308   0.272    0.07     990    0.10
 2020 111   309   0.272    0.07     990    0.07
 2020 112   310   0.272    0.07     990    0.11
 2020 113   311   0.272    0.07     990    0.25
 2020 114   312   0.272    0.07     990    0.24
 2020 115   313   0.272    0.07     990    0.27
 2020 116   314   0.272    0.07     990    0.26
 2020 117   315   0.272    0.07     990    0.27
 2020 118   316   0.272    0.07     990    0.26
 2020 119   317   0.272    0.07     990    0.27
 2020 120   318   0.272    0.07     990    0.27
 2020 121   319   0.272    0.07     990    0.27
 2020 122   320   0.272    0.07     990    0.27
 2020 123   321   0.272    0.07     990    0.27
 2020 124   322   0.272    0.07     990    0.27
 2020 125   323   0.272    0.07     990    0.27
 2020 126   324   0.272    0.07     990    0.27
 2020 127   325   0.272    0.07     990    0.23
 2020 128   326   0.272    0.07     990    0.28
 2020 129   327   0.272    0.07     990    0.26
 2020 130   328   0.272    0.07     990    0.27
 2020 131   329   0.272    0.07     990    0.26
 2020 132   330   0.272    0.07     990    0.27
 2020 133   331   0.272    0.07     990    0.27
 2020 134   332   0.272    0.07     990    0.27
 2020 135   333   0.272    0.07     990    0.27
 2020 136   334   0.272    0.07     990    0.27
 2020 137   335   0.272    0.07     990    0.27
 2020 138   336   0.272    0.07     990    0.27
 2020 139   337   0.272    0.07     990    0.27
 2020 140   338   0.272    0.07     990    0.27
 2020 141   339   0.272    0.07     990    0.27
 2020 142   340   0.272    0.07     990    0.27
 2020 143   341   0.272    0.07     990    0.27
 2020 144   342   0.272    0.07     990    0.26
 2020 145   343   0.272    0.07     990    0.27
 2020 146   344   0.272    0.07     990    0.27
 2020 147   345   0.272    0.07     990    0.27
 2020 148   346   0.272    0.07     990    0.27
 2020 149   347   0.272    0.07     990    0.27
 2020 150   348   0.272    0.07     990    0.27
 2020 151   349   0.272    0.07     990    0.27
 2020 152   350   0.272    0.07     990    0.27
 2020 153   351   0.272    0.07     990    0.27
 2020 154   352   0.272    0.07     990    0.27
 2020 155   353   0.272    0.07     990    0.27
 2020 156   354   0.272    0.07     990    0.27
 2020 157   355   0.272    0.07     990    0.27
 2020 158   356   0.272    0.07     990    0.27
 2020 159   357   0.272    0.07     990    0.27
 2020 160   358   0.272    0.07     990    0.27
 2020 161   359   0.272    0.07     990    0.27
 2020 162   360   0.272    0.07     990    0.27
 2020 163   361   0.272    0.07     990    0.27
 2020 164   362   0.272    0.07     990    0.27
 2020 165   363   0.272    0.07     990    0.27
 2020 166   364   0.272    0.07     990    0.27
 2020 167   365   0.272    0.07     990    0.27
 2020 168   366   0.272    0.07     990    0.27
 2020 169   367   0.272    0.07     990    0.27
 2020 170   368   0.272    0.07     990    0.27
 2020 171   369   0.272    0.07     990    0.27
 2020 172   370   0.272    0.07     990    0.27
 2020 173   371   0.272    0.07     990    0.27
 2020 174   372   0.272    0.07     990    0.27
 2020 175   373   0.272    0.07     990    0.27
 2020 176   374   0.272    0.07     990    0.27
 2020 177   375   0.272    0.07     990    0.27
 2020 178   376   0.272    0.07     990    0.27
 2020 179   377   0.272    0.07     990    0.27
 2020 180   378   0.272    0.07     990    0.27
 2020 181   379   0.272    0.07     990    0.27
 2020 182   380   0.272    0.07     990    0.27
 2020 183   381   0.272    0.07     990    0.27
 2020 184   382   0.272    0.07     990    0.26
 2020 185   383   0.272    0.07     990    0.27
 2020 186   384   0.272    0.07     990    0.27
 2020 187   385   0.272    0.07     990    0.27
 2020 188   386   0.272    0.07     990    0.27
 2020 189   387   0.272    0.07     990    0.27
 2020 190   388   0.272    0.07     990    0.27
 2020 191   389   0.272    0.07     990    0.27
 2020 192   390   0.272    0.07     990    0.27
 2020 193   391   0.272    0.07     990    0.27
 2020 194   392   0.272    0.07     990    0.27
 2020 195   393   0.272    0.07     990    0.27
 2020 196   394   0.272    0.07     990    0.27
 2020 197   395   0.272    0.07     990    0.27
 2020 198   396   0.272    0.07     990    0.27
 2020 199   397   0.272    0.07     990    0.27
 2020 200   398   0.272    0.07     990    0.27
 2020 201   399   0.272    0.07     990    0.27
 2020 202   400   0.272    0.07     990    0.27
 2020 203   401   0.272    0.07     990    0.27
 2020 204   402   0.272    0.07     990    0.27
 2020 205   403   0.272    0.07     990    0.27
 2020 206   404   0.272    0.07     990    0.27
 2020 207   405   0.272    0.07     990    0.27
 2020 208   406   0.272    0.07     990    0.27
 2020 209   407   0.272    0.07     990    0.27

*DSSAT Cropping System Model Ver. 4.8.0.019 -develop  APR 08, 2023 12:34:37

*RUN   2        : IITA-TMS-IBA000070        CSYCA048 UYAG1701    1
 MODEL          : CSYCA048 - Cassava
 EXPERIMENT     : UYAG1701 CS UYT_GXE
 DATA PATH      :
 TREATMENT  1   : IITA-TMS-IBA000070        CSYCA048
  
@YEAR DOY   DAS    MCFD   MDEPD    MWAD    MWTD
 2017 240     0   0.000    0.00       0    0.00
 2017 241     1   0.000    0.00       0    0.00
 2017 242     2   0.000    0.00       0    0.00
 2017 243     3   0.000    0.00       0    0.00
 2017 244     4   0.000    0.00       0    0.00
 2017 245     5   0.000    0.00       0    0.00
 2017 246     6   0.000    0.00       0    0.00
 2017 247     7   0.000    0.00       0    0.00
 2017 248     8   0.000    0.00       0    0.00
 2017 249     9   0.000    0.00       0    0.00
 2017 250    10   0.000    0.00       0    0.00
 2017 251    11   0.000    0.00       0    0.00
 2017 252    12   0.000    0.00       0    0.00
 2017 253    13   0.000    0.00       0    0.00
 2017 254    14   0.000    0.00       0    0.00
 2017 255    15   0.000    0.00       0    0.00
 2017 256    16   0.000    0.00       0    0.00
 2017 257    17   0.000    0.00       0    0.00
 2017 258    18   0.000    0.00       0    0.00
 2017 259    19   0.000    0.00       0    0.00
 2017 260    20   0.000    0.00       0    0.00
 2017 261    21   0.000    0.00       0    0.00
 2017 262    22   0.000    0.00       0    0.00
 2017 263    23   0.000    0.00       0    0.00
 2017 264    24   0.000    0.00       0    0.00
 2017 265    25   0.000    0.00       0    0.00
 2017 266    26   0.000    0.00       0    0.00
 2017 267    27   0.000    0.00       0    0.00
 2017 268    28   0.000    0.00       0    0.00
 2017 269    29   0.000    0.00       0    0.00
 2017 270    30   0.000    0.00       0    0.00
 2017 271    31   0.000    0.00       0    0.00
 2017 272    32   0.000    0.00       0    0.00
 2017 273    33   0.000    0.00       0    0.00
 2017 274    34   0.000    0.00       0    0.00
 2017 275    35   0.000    0.00       0    0.00
 2017 276    36   0.000    0.00       0    0.00
 2017 277    37   0.000    0.00       0    0.00
 2017 278    38   0.000    0.00       0    0.00
 2017 279    39   0.000    0.00       0    0.00
 2017 280    40   0.000    0.00       0    0.00
 2017 281    41   0.000    0.00       0    0.00
 2017 282    42   0.000    0.00       0    0.00
 2017 283    43   0.000    0.00       0    0.00
 2017 284    44   0.000    0.00       0    0.00
 2017 285    45   0.000    0.00       0    0.00
 2017 286    46   0.000    0.00       0    0.00
 2017 287    47   0.000    0.00       0    0.00
 2017 288    48   0.000    0.00       0    0.00
 2017 289    49   0.000    0.00       0    0.00
 2017 290    50   0.000    0.00       0    0.00
 2017 291    51   0.000    0.00       0    0.00
 2017 292    52   0.000    0.00       0    0.00
 2017 293    53   0.000    0.00       0    0.00
 2017 294    54   0.000    0.00       0    0.00
 2017 295    55   0.000    0.00       0    0.00
 2017 296    56   0.000    0.00       0    0.00
 2017 297    57   0.000    0.00       0    0.00
 2017 298    58   0.000    0.00       0    0.00
 2017 299    59   0.000    0.00       0    0.00
 2017 300    60   0.000    0.00       0    0.00
 2017 301    61   0.000    0.00       0    0.00
 2017 302    62   0.000    0.00       0    0.00
 2017 303    63   0.000    0.00       0    0.00
 2017 304    64   0.000    0.00       0    0.00
 2017 305    65   0.000    0.00       0    0.00
 2017 306    66   0.000    0.00       0    0.00
 2017 307    67   0.000    0.00       0    0.00
 2017 308    68   0.000    0.00       0    0.00
 2017 309    69   0.000    0.00       0    0.00
 2017 310    70   0.000    0.00       0    0.00
 2017 311    71   0.000    0.00       0    0.00
 2017 312    72   0.000    0.00       0    0.00
 2017 313    73   0.000    0.00       0    0.00
 2017 314    74   0.000    0.00       0    0.00
 2017 315    75   0.000    0.00       0    0.00
 2017 316    76   0.000    0.00       0    0.00
 2017 317    77   0.000    0.00       0    0.00
 2017 318    78   0.000    0.00       0    0.00
 2017 319    79   0.000    0.00       0    0.00
 2017 320    80   0.000    0.00       0    0.00
 2017 321    81   0.000    0.00       0    0.00
 2017 322    82   0.000    0.00       0    0.00
 2017 323    83   0.000    0.00       0    0.00
 2017 324    84   0.000    0.00       0    0.00
 2017 325    85   0.000    0.00       0    0.00
 2017 326    86   0.000    0.00       0    0.00
 2017 327    87   0.000    0.00       0    0.00
 2017 328    88   0.000    0.00       0    0.00
 2017 329    89   0.000    0.00       0    0.00
 2017 330    90   0.000    0.00       0    0.00
 2017 331    91   0.000    0.00       0    0.00
 2017 332    92   0.000    0.00       0    0.00
 2017 333    93   0.000    0.00       0    0.00
 2017 334    94   0.000    0.00       0    0.00
 2017 335    95   0.000    0.00       0    0.00
 2017 336    96   0.000    0.00       0    0.00
 2017 337    97   0.000    0.00       0    0.00
 2017 338    98   0.000    0.00       0    0.00
 2017 339    99   0.000    0.00       0    0.00
 2017 340   100   0.000    0.00       0    0.00
 2017 341   101   0.000    0.00       0    0.00
 2017 342   102   0.000    0.00       0    0.00
 2017 343   103   0.000    0.00       0    0.00
 2017 344   104   0.000    0.00       0    0.00
 2017 345   105   0.000    0.00       0    0.00
 2017 346   106   0.000    0.00       0    0.00
 2017 347   107   0.000    0.00       0    0.00
 2017 348   108   0.000    0.00       0    0.00
 2017 349   109   0.000    0.00       0    0.00
 2017 350   110   0.000    0.00       0    0.00
 2017 351   111   0.000    0.00       0    0.00
 2017 352   112   0.000    0.00       0    0.00
 2017 353   113   0.000    0.00       0    0.00
 2017 354   114   0.000    0.00       0    0.00
 2017 355   115   0.000    0.00       0    0.00
 2017 356   116   0.000    0.00       0    0.00
 2017 357   117   0.000    0.00       0    0.00
 2017 358   118   0.000    0.00       0    0.00
 2017 359   119   0.000    0.00       0    0.00
 2017 360   120   0.000    0.00       0    0.00
 2017 361   121   0.000    0.00       0    0.00
 2017 362   122   0.000    0.00       0    0.00
 2017 363   123   0.000    0.00       0    0.00
 2017 364   124   0.000    0.00       0    0.00
 2017 365   125   0.000    0.00       0    0.00
 2018 001   126   0.000    0.00       0    0.00
 2018 002   127   0.000    0.00       0    0.00
 2018 003   128   0.000    0.00       0    0.00
 2018 004   129   0.000    0.00       0    0.00
 2018 005   130   0.000    0.00       0    0.00
 2018 006   131   0.000    0.00       0    0.00
 2018 007   132   0.000    0.00       0    0.00
 2018 008   133   0.000    0.00       0    0.00
 2018 009   134   0.000    0.00       0    0.00
 2018 010   135   0.000    0.00       0    0.00
 2018 011   136   0.000    0.00       0    0.00
 2018 012   137   0.000    0.00       0    0.00
 2018 013   138   0.000    0.00       0    0.00
 2018 014   139   0.000    0.00       0    0.00
 2018 015   140   0.000    0.00       0    0.00
 2018 016   141   0.000    0.00       0    0.00
 2018 017   142   0.000    0.00       0    0.00
 2018 018   143   0.000    0.00       0    0.00
 2018 019   144   0.000    0.00       0    0.00
 2018 020   145   0.000    0.00       0    0.00
 2018 021   146   0.000    0.00       0    0.00
 2018 022   147   0.000    0.00       0    0.00
 2018 023   148   0.000    0.00       0    0.00
 2018 024   149   0.000    0.00       0    0.00
 2018 025   150   0.000    0.00       0    0.00
 2018 026   151   0.000    0.00       0    0.00
 2018 027   152   0.000    0.00       1    0.00
 2018 028   153   0.001    0.00       4    0.00
 2018 029   154   0.003    0.00       8    0.00
 2018 030   155   0.005    0.00      15    0.00
 2018 031   156   0.007    0.00      23    0.00
 2018 032   157   0.009    0.00      30    0.00
 2018 033   158   0.012    0.00      37    0.01
 2018 034   159   0.014    0.00      44    0.01
 2018 035   160   0.016    0.00      51    0.01
 2018 036   161   0.018    0.00      56    0.01
 2018 037   162   0.019    0.00      61    0.02
 2018 038   163   0.021    0.00      67    0.02
 2018 039   164   0.023    0.00      71    0.02
 2018 040   165   0.024    0.00      76    0.02
 2018 041   166   0.026    0.00      81    0.02
 2018 042   167   0.027    0.00      86    0.02
 2018 043   168   0.029    0.00      90    0.02
 2018 044   169   0.030    0.00      96    0.02
 2018 045   170   0.032    0.00     101    0.03
 2018 046   171   0.034    0.00     107    0.03
 2018 047   172   0.036    0.00     114    0.03
 2018 048   173   0.038    0.00     121    0.03
 2018 049   174   0.040    0.00     128    0.03
 2018 050   175   0.042    0.00     135    0.03
 2018 051   176   0.045    0.00     142    0.04
 2018 052   177   0.047    0.00     150    0.04
 2018 053   178   0.049    0.00     157    0.04
 2018 054   179   0.052    0.00     166    0.04
 2018 055   180   0.054    0.00     174    0.04
 2018 056   181   0.057    0.00     182    0.05
 2018 057   182   0.059    0.00     191    0.05
 2018 058   183   0.062    0.00     199    0.05
 2018 059   184   0.064    0.00     208    0.05
 2018 060   185   0.067    0.00     218    0.06
 2018 061   186   0.071    0.00     229    0.06
 2018 062   187   0.074    0.00     240    0.06
 2018 063   188   0.078    0.00     253    0.06
 2018 064   189   0.081    0.01     266    0.07
 2018 065   190   0.085    0.01     278    0.07
 2018 066   191   0.089    0.01     290    0.07
 2018 067   192   0.093    0.01     303    0.08
 2018 068   193   0.096    0.01     317    0.08
 2018 069   194   0.100    0.01     329    0.08
 2018 070   195   0.104    0.01     343    0.09
 2018 071   196   0.108    0.01     358    0.09
 2018 072   197   0.112    0.01     372    0.10
 2018 073   198   0.116    0.01     386    0.10
 2018 074   199   0.120    0.01     398    0.10
 2018 075   200   0.123    0.01     409    0.11
 2018 076   201   0.126    0.01     421    0.11
 2018 077   202   0.129    0.01     432    0.11
 2018 078   203   0.132    0.01     443    0.12
 2018 079   204   0.135    0.01     453    0.12
 2018 080   205   0.138    0.02     464    0.12
 2018 081   206   0.141    0.02     473    0.12
 2018 082   207   0.143    0.02     483    0.13
 2018 083   208   0.146    0.02     494    0.13
 2018 084   209   0.149    0.02     504    0.13
 2018 085   210   0.151    0.02     513    0.14
 2018 086   211   0.154    0.02     523    0.13
 2018 087   212   0.157    0.02     533    0.14
 2018 088   213   0.159    0.02     541    0.14
 2018 089   214   0.161    0.02     550    0.14
 2018 090   215   0.163    0.02     557    0.12
 2018 091   216   0.165    0.02     563    0.15
 2018 092   217   0.166    0.02     568    0.15
 2018 093   218   0.168    0.02     573    0.15
 2018 094   219   0.169    0.02     578    0.15
 2018 095   220   0.170    0.02     583    0.16
 2018 096   221   0.171    0.02     587    0.16
 2018 097   222   0.172    0.03     591    0.16
 2018 098   223   0.173    0.03     595    0.16
 2018 099   224   0.174    0.03     598    0.16
 2018 100   225   0.175    0.03     602    0.16
 2018 101   226   0.176    0.03     605    0.16
 2018 102   227   0.177    0.03     609    0.16
 2018 103   228   0.178    0.03     613    0.16
 2018 104   229   0.179    0.03     617    0.17
 2018 105   230   0.180    0.03     621    0.17
 2018 106   231   0.181    0.03     623    0.17
 2018 107   232   0.182    0.03     627    0.17
 2018 108   233   0.183    0.03     632    0.17
 2018 109   234   0.185    0.03     639    0.17
 2018 110   235   0.188    0.03     649    0.17
 2018 111   236   0.190    0.03     660    0.17
 2018 112   237   0.193    0.03     671    0.18
 2018 113   238   0.196    0.03     681    0.18
 2018 114   239   0.198    0.03     691    0.18
 2018 115   240   0.200    0.03     697    0.19
 2018 116   241   0.202    0.04     704    0.19
 2018 117   242   0.203    0.04     707    0.19
 2018 118   243   0.204    0.04     712    0.19
 2018 119   244   0.205    0.04     716    0.19
 2018 120   245   0.206    0.04     719    0.19
 2018 121   246   0.207    0.04     723    0.19
 2018 122   247   0.207    0.04     725    0.19
 2018 123   248   0.208    0.04     729    0.20
 2018 124   249   0.208    0.04     730    0.20
 2018 125   250   0.209    0.04     733    0.20
 2018 126   251   0.210    0.04     736    0.20
 2018 127   252   0.210    0.04     737    0.20
 2018 128   253   0.211    0.04     739    0.20
 2018 129   254   0.211    0.04     742    0.20
 2018 130   255   0.212    0.04     743    0.20
 2018 131   256   0.212    0.04     744    0.20
 2018 132   257   0.212    0.04     745    0.20
 2018 133   258   0.213    0.04     747    0.20
 2018 134   259   0.213    0.04     748    0.20
 2018 135   260   0.213    0.04     749    0.20
 2018 136   261   0.213    0.04     750    0.20
 2018 137   262   0.214    0.04     752    0.20
 2018 138   263   0.214    0.04     753    0.20
 2018 139   264   0.214    0.04     754    0.20
 2018 140   265   0.215    0.04     756    0.20
 2018 141   266   0.215    0.04     757    0.20
 2018 142   267   0.215    0.04     757    0.20
 2018 143   268   0.216    0.04     759    0.20
 2018 144   269   0.216    0.04     760    0.20
 2018 145   270   0.216    0.04     761    0.21
 2018 146   271   0.216    0.04     762    0.21
 2018 147   272   0.217    0.04     763    0.21
 2018 148   273   0.217    0.04     763    0.21
 2018 149   274   0.217    0.04     764    0.21
 2018 150   275   0.217    0.04     765    0.21
 2018 151   276   0.217    0.04     766    0.21
 2018 152   277   0.218    0.04     767    0.21
 2018 153   278   0.218    0.04     768    0.21
 2018 154   279   0.218    0.04     768    0.21
 2018 155   280   0.218    0.04     769    0.21
 2018 156   281   0.218    0.04     770    0.21
 2018 157   282   0.219    0.04     772    0.21
 2018 158   283   0.219    0.04     773    0.21
 2018 159   284   0.220    0.04     775    0.21
 2018 160   285   0.220    0.04     776    0.21
 2018 161   286   0.221    0.04     779    0.21
 2018 162   287   0.221    0.04     782    0.21
 2018 163   288   0.222    0.04     785    0.21
 2018 164   289   0.223    0.04     789    0.21
 2018 165   290   0.224    0.04     793    0.21
 2018 166   291   0.225    0.04     796    0.21
 2018 167   292   0.226    0.05     799    0.21
 2018 168   293   0.226    0.05     802    0.22
 2018 169   294   0.227    0.05     803    0.22
 2018 170   295   0.227    0.05     805    0.22
 2018 171   296   0.228    0.05     807    0.22
 2018 172   297   0.228    0.05     808    0.22
 2018 173   298   0.228    0.05     809    0.22
 2018 174   299   0.228    0.05     810    0.22
 2018 175   300   0.229    0.05     812    0.22
 2018 176   301   0.229    0.05     813    0.20
 2018 177   302   0.229    0.05     814    0.22
 2018 178   303   0.230    0.05     816    0.22
 2018 179   304   0.230    0.05     817    0.22
 2018 180   305   0.230    0.05     818    0.22
 2018 181   306   0.231    0.05     819    0.22
 2018 182   307   0.231    0.05     820    0.22
 2018 183   308   0.231    0.05     821    0.22
 2018 184   309   0.231    0.05     822    0.22
 2018 185   310   0.232    0.05     823    0.22
 2018 186   311   0.232    0.05     824    0.22
 2018 187   312   0.232    0.05     825    0.22
 2018 188   313   0.232    0.05     825    0.22
 2018 189   314   0.232    0.05     827    0.22
 2018 190   315   0.233    0.05     827    0.22
 2018 191   316   0.233    0.05     828    0.22
 2018 192   317   0.233    0.05     829    0.22
 2018 193   318   0.233    0.05     830    0.22
 2018 194   319   0.233    0.05     831    0.22

*DSSAT Cropping System Model Ver. 4.8.0.019 -develop  APR 08, 2023 12:34:38

*RUN   3        : IITA-TMS-IBA000070        CSYCA048 UYAG1801    1
 MODEL          : CSYCA048 - Cassava
 EXPERIMENT     : UYAG1801 CS UYT_GXE
 DATA PATH      :
 TREATMENT  1   : IITA-TMS-IBA000070        CSYCA048
  
@YEAR DOY   DAS    MCFD   MDEPD    MWAD    MWTD
 2018 170     0   0.000    0.00       0    0.00
 2018 171     1   0.000    0.00       0    0.00
 2018 172     2   0.000    0.00       0    0.00
 2018 173     3   0.000    0.00       0    0.00
 2018 174     4   0.000    0.00       0    0.00
 2018 175     5   0.000    0.00       0    0.00
 2018 176     6   0.000    0.00       0    0.00
 2018 177     7   0.000    0.00       0    0.00
 2018 178     8   0.000    0.00       0    0.00
 2018 179     9   0.000    0.00       0    0.00
 2018 180    10   0.000    0.00       0    0.00
 2018 181    11   0.000    0.00       0    0.00
 2018 182    12   0.000    0.00       0    0.00
 2018 183    13   0.000    0.00       0    0.00
 2018 184    14   0.000    0.00       0    0.00
 2018 185    15   0.000    0.00       0    0.00
 2018 186    16   0.000    0.00       0    0.00
 2018 187    17   0.000    0.00       0    0.00
 2018 188    18   0.000    0.00       0    0.00
 2018 189    19   0.000    0.00       0    0.00
 2018 190    20   0.000    0.00       0    0.00
 2018 191    21   0.000    0.00       0    0.00
 2018 192    22   0.000    0.00       0    0.00
 2018 193    23   0.000    0.00       0    0.00
 2018 194    24   0.000    0.00       0    0.00
 2018 195    25   0.000    0.00       0    0.00
 2018 196    26   0.000    0.00       0    0.00
 2018 197    27   0.000    0.00       0    0.00
 2018 198    28   0.000    0.00       0    0.00
 2018 199    29   0.000    0.00       0    0.00
 2018 200    30   0.000    0.00       0    0.00
 2018 201    31   0.000    0.00       0    0.00
 2018 202    32   0.000    0.00       0    0.00
 2018 203    33   0.000    0.00       0    0.00
 2018 204    34   0.000    0.00       0    0.00
 2018 205    35   0.000    0.00       0    0.00
 2018 206    36   0.000    0.00       0    0.00
 2018 207    37   0.000    0.00       0    0.00
 2018 208    38   0.000    0.00       0    0.00
 2018 209    39   0.000    0.00       0    0.00
 2018 210    40   0.000    0.00       0    0.00
 2018 211    41   0.000    0.00       0    0.00
 2018 212    42   0.000    0.00       0    0.00
 2018 213    43   0.000    0.00       0    0.00
 2018 214    44   0.000    0.00       0    0.00
 2018 215    45   0.000    0.00       0    0.00
 2018 216    46   0.000    0.00       0    0.00
 2018 217    47   0.000    0.00       0    0.00
 2018 218    48   0.000    0.00       0    0.00
 2018 219    49   0.000    0.00       0    0.00
 2018 220    50   0.000    0.00       0    0.00
 2018 221    51   0.000    0.00       0    0.00
 2018 222    52   0.000    0.00       0    0.00
 2018 223    53   0.000    0.00       0    0.00
 2018 224    54   0.000    0.00       0    0.00
 2018 225    55   0.000    0.00       0    0.00
 2018 226    56   0.000    0.00       0    0.00
 2018 227    57   0.000    0.00       0    0.00
 2018 228    58   0.000    0.00       0    0.00
 2018 229    59   0.000    0.00       0    0.00
 2018 230    60   0.000    0.00       0    0.00
 2018 231    61   0.000    0.00       0    0.00
 2018 232    62   0.000    0.00       0    0.00
 2018 233    63   0.000    0.00       0    0.00
 2018 234    64   0.000    0.00       0    0.00
 2018 235    65   0.000    0.00       0    0.00
 2018 236    66   0.000    0.00       0    0.00
 2018 237    67   0.000    0.00       0    0.00
 2018 238    68   0.000    0.00       0    0.00
 2018 239    69   0.000    0.00       0    0.00
 2018 240    70   0.000    0.00       0    0.00
 2018 241    71   0.000    0.00       0    0.00
 2018 242    72   0.000    0.00       0    0.00
 2018 243    73   0.000    0.00       0    0.00
 2018 244    74   0.000    0.00       0    0.00
 2018 245    75   0.000    0.00       0    0.00
 2018 246    76   0.000    0.00       0    0.00
 2018 247    77   0.000    0.00       0    0.00
 2018 248    78   0.000    0.00       0    0.00
 2018 249    79   0.000    0.00       0    0.00
 2018 250    80   0.000    0.00       0    0.00
 2018 251    81   0.000    0.00       0    0.00
 2018 252    82   0.000    0.00       0    0.00
 2018 253    83   0.000    0.00       0    0.00
 2018 254    84   0.000    0.00       0    0.00
 2018 255    85   0.000    0.00       0    0.00
 2018 256    86   0.000    0.00       0    0.00
 2018 257    87   0.000    0.00       0    0.00
 2018 258    88   0.000    0.00       0    0.00
 2018 259    89   0.000    0.00       0    0.00
 2018 260    90   0.000    0.00       0    0.00
 2018 261    91   0.000    0.00       0    0.00
 2018 262    92   0.000    0.00       0    0.00
 2018 263    93   0.000    0.00       0    0.00
 2018 264    94   0.000    0.00       0    0.00
 2018 265    95   0.000    0.00       0    0.00
 2018 266    96   0.000    0.00       0    0.00
 2018 267    97   0.000    0.00       0    0.00
 2018 268    98   0.000    0.00       0    0.00
 2018 269    99   0.000    0.00       0    0.00
 2018 270   100   0.000    0.00       0    0.00
 2018 271   101   0.000    0.00       0    0.00
 2018 272   102   0.000    0.00       0    0.00
 2018 273   103   0.000    0.00       0    0.00
 2018 274   104   0.000    0.00       0    0.00
 2018 275   105   0.000    0.00       0    0.00
 2018 276   106   0.000    0.00       0    0.00
 2018 277   107   0.000    0.00       0    0.00
 2018 278   108   0.000    0.00       0    0.00
 2018 279   109   0.000    0.00       0    0.00
 2018 280   110   0.000    0.00       0    0.00
 2018 281   111   0.000    0.00       0    0.00
 2018 282   112   0.000    0.00       0    0.00
 2018 283   113   0.000    0.00       0    0.00
 2018 284   114   0.000    0.00       0    0.00
 2018 285   115   0.000    0.00       0    0.00
 2018 286   116   0.000    0.00       0    0.00
 2018 287   117   0.000    0.00       0    0.00
 2018 288   118   0.000    0.00       0    0.00
 2018 289   119   0.000    0.00       0    0.00
 2018 290   120   0.000    0.00       0    0.00
 2018 291   121   0.000    0.00       0    0.00
 2018 292   122   0.000    0.00       0    0.00
 2018 293   123   0.000    0.00       0    0.00
 2018 294   124   0.000    0.00       0    0.00
 2018 295   125   0.000    0.00       0    0.00
 2018 296   126   0.000    0.00       0    0.00
 2018 297   127   0.000    0.00       0    0.00
 2018 298   128   0.000    0.00       0    0.00
 2018 299   129   0.000    0.00       0    0.00
 2018 300   130   0.000    0.00       0    0.00
 2018 301   131   0.000    0.00       0    0.00
 2018 302   132   0.000    0.00       0    0.00
 2018 303   133   0.000    0.00       0    0.00
 2018 304   134   0.000    0.00       0    0.00
 2018 305   135   0.000    0.00       0    0.00
 2018 306   136   0.000    0.00       0    0.00
 2018 307   137   0.000    0.00       0    0.00
 2018 308   138   0.000    0.00       0    0.00
 2018 309   139   0.000    0.00       0    0.00
 2018 310   140   0.000    0.00       0    0.00
 2018 311   141   0.000    0.00       0    0.00
 2018 312   142   0.000    0.00       0    0.00
 2018 313   143   0.000    0.00       0    0.00
 2018 314   144   0.000    0.00       0    0.00
 2018 315   145   0.000    0.00       0    0.00
 2018 316   146   0.000    0.00       0    0.00
 2018 317   147   0.000    0.00       0    0.00
 2018 318   148   0.000    0.00       0    0.00
 2018 319   149   0.000    0.00       0    0.00
 2018 320   150   0.000    0.00       0    0.00
 2018 321   151   0.000    0.00       0    0.00
 2018 322   152   0.000    0.00       0    0.00
 2018 323   153   0.000    0.00       0    0.00
 2018 324   154   0.000    0.00       0    0.00
 2018 325   155   0.000    0.00       0    0.00
 2018 326   156   0.000    0.00       0    0.00
 2018 327   157   0.000    0.00       0    0.00
 2018 328   158   0.000    0.00       0    0.00
 2018 329   159   0.000    0.00       0    0.00
 2018 330   160   0.000    0.00       0    0.00
 2018 331   161   0.000    0.00       0    0.00
 2018 332   162   0.000    0.00       0    0.00
 2018 333   163   0.000    0.00       1    0.00
 2018 334   164   0.001    0.00       4    0.00
 2018 335   165   0.003    0.00       8    0.00
 2018 336   166   0.004    0.00      14    0.00
 2018 337   167   0.006    0.00      20    0.00
 2018 338   168   0.009    0.00      27    0.00
 2018 339   169   0.011    0.00      34    0.00
 2018 340   170   0.013    0.00      40    0.01
 2018 341   171   0.015    0.00      46    0.01
 2018 342   172   0.016    0.00      51    0.01
 2018 343   173   0.018    0.00      56    0.01
 2018 344   174   0.019    0.00      60    0.01
 2018 345   175   0.020    0.00      63    0.01
 2018 346   176   0.021    0.00      66    0.02
 2018 347   177   0.022    0.00      69    0.02
 2018 348   178   0.023    0.00      72    0.02
 2018 349   179   0.023    0.00      74    0.02
 2018 350   180   0.024    0.00      77    0.02
 2018 351   181   0.025    0.00      80    0.02
 2018 352   182   0.027    0.00      84    0.02
 2018 353   183   0.028    0.00      88    0.02
 2018 354   184   0.029    0.00      92    0.02
 2018 355   185   0.030    0.00      95    0.02
 2018 356   186   0.031    0.00      99    0.02
 2018 357   187   0.032    0.00     103    0.02
 2018 358   188   0.034    0.00     107    0.02
 2018 359   189   0.035    0.00     111    0.02
 2018 360   190   0.036    0.00     115    0.02
 2018 361   191   0.037    0.00     119    0.02
 2018 362   192   0.039    0.00     123    0.02
 2018 363   193   0.040    0.00     128    0.02
 2018 364   194   0.042    0.00     133    0.02
 2018 365   195   0.043    0.00     138    0.02
 2019 001   196   0.045    0.00     143    0.02
 2019 002   197   0.046    0.00     148    0.02
 2019 003   198   0.048    0.00     153    0.02
 2019 004   199   0.049    0.00     158    0.02
 2019 005   200   0.051    0.00     164    0.02
 2019 006   201   0.053    0.00     170    0.02
 2019 007   202   0.055    0.00     176    0.02
 2019 008   203   0.057    0.00     183    0.02
 2019 009   204   0.059    0.00     189    0.02
 2019 010   205   0.060    0.00     195    0.02
 2019 011   206   0.062    0.00     201    0.02
 2019 012   207   0.065    0.00     209    0.02
 2019 013   208   0.067    0.00     218    0.02
 2019 014   209   0.070    0.00     227    0.02
 2019 015   210   0.073    0.00     236    0.02
 2019 016   211   0.076    0.00     247    0.06
 2019 017   212   0.079    0.00     256    0.06
 2019 018   213   0.083    0.01     269    0.07
 2019 019   214   0.086    0.01     281    0.07
 2019 020   215   0.089    0.01     293    0.08
 2019 021   216   0.093    0.01     306    0.08
 2019 022   217   0.097    0.01     318    0.08
 2019 023   218   0.101    0.01     333    0.09
 2019 024   219   0.105    0.01     347    0.09
 2019 025   220   0.109    0.01     361    0.09
 2019 026   221   0.113    0.01     375    0.10
 2019 027   222   0.117    0.01     387    0.10
 2019 028   223   0.120    0.01     399    0.10
 2019 029   224   0.123    0.01     411    0.11
 2019 030   225   0.127    0.01     423    0.11
 2019 031   226   0.130    0.01     435    0.11
 2019 032   227   0.133    0.01     446    0.12
 2019 033   228   0.136    0.01     456    0.12
 2019 034   229   0.138    0.02     465    0.12
 2019 035   230   0.141    0.02     474    0.12
 2019 036   231   0.144    0.02     485    0.13
 2019 037   232   0.147    0.02     496    0.13
 2019 038   233   0.150    0.02     507    0.13
 2019 039   234   0.153    0.02     519    0.14
 2019 040   235   0.156    0.02     530    0.12
 2019 041   236   0.159    0.02     540    0.11
 2019 042   237   0.161    0.02     550    0.09
 2019 043   238   0.164    0.02     560    0.08
 2019 044   239   0.167    0.02     570    0.07
 2019 045   240   0.169    0.02     577    0.06
 2019 046   241   0.171    0.02     587    0.07
 2019 047   242   0.174    0.03     597    0.10
 2019 048   243   0.176    0.03     604    0.10
 2019 049   244   0.178    0.03     611    0.10
 2019 050   245   0.180    0.03     620    0.14
 2019 051   246   0.182    0.03     629    0.16
 2019 052   247   0.184    0.03     635    0.17
 2019 053   248   0.186    0.03     643    0.17
 2019 054   249   0.188    0.03     651    0.17
 2019 055   250   0.190    0.03     657    0.18
 2019 056   251   0.191    0.03     664    0.18
 2019 057   252   0.193    0.03     672    0.18
 2019 058   253   0.195    0.03     677    0.18
 2019 059   254   0.196    0.03     683    0.18
 2019 060   255   0.198    0.03     689    0.18
 2019 061   256   0.200    0.03     696    0.19
 2019 062   257   0.201    0.03     701    0.19
 2019 063   258   0.203    0.04     707    0.19
 2019 064   259   0.204    0.04     713    0.19
 2019 065   260   0.205    0.04     717    0.19
 2019 066   261   0.207    0.04     723    0.19
 2019 067   262   0.208    0.04     728    0.19
 2019 068   263   0.209    0.04     733    0.20
 2019 069   264   0.211    0.04     739    0.20
 2019 070   265   0.212    0.04     744    0.20
 2019 071   266   0.213    0.04     748    0.20
 2019 072   267   0.214    0.04     754    0.20
 2019 073   268   0.215    0.04     758    0.20
 2019 074   269   0.217    0.04     763    0.20
 2019 075   270   0.218    0.04     768    0.21
 2019 076   271   0.219    0.04     773    0.21
 2019 077   272   0.220    0.04     778    0.21
 2019 078   273   0.221    0.04     782    0.21
 2019 079   274   0.223    0.04     787    0.19
 2019 080   275   0.224    0.04     791    0.22
 2019 081   276   0.225    0.04     796    0.20
 2019 082   277   0.226    0.05     800    0.18
 2019 083   278   0.227    0.05     804    0.17
 2019 084   279   0.228    0.05     808    0.16
 2019 085   280   0.229    0.05     812    0.15
 2019 086   281   0.230    0.05     815    0.22
 2019 087   282   0.231    0.05     819    0.21
 2019 088   283   0.231    0.05     823    0.22
 2019 089   284   0.232    0.05     826    0.22
 2019 090   285   0.233    0.05     830    0.22
 2019 091   286   0.234    0.05     833    0.22
 2019 092   287   0.235    0.05     836    0.22
 2019 093   288   0.235    0.05     839    0.23
 2019 094   289   0.236    0.05     841    0.23
 2019 095   290   0.236    0.05     843    0.23
 2019 096   291   0.237    0.05     845    0.23
 2019 097   292   0.237    0.05     846    0.23
 2019 098   293   0.238    0.05     848    0.23
 2019 099   294   0.238    0.05     849    0.23
 2019 100   295   0.238    0.05     850    0.23
 2019 101   296   0.239    0.05     852    0.23
 2019 102   297   0.239    0.05     853    0.23
 2019 103   298   0.239    0.05     853    0.23
 2019 104   299   0.239    0.05     854    0.23
 2019 105   300   0.239    0.05     855    0.23
 2019 106   301   0.240    0.05     856    0.23
 2019 107   302   0.240    0.05     857    0.23
 2019 108   303   0.240    0.05     858    0.23
 2019 109   304   0.240    0.05     859    0.23
 2019 110   305   0.241    0.05     860    0.23
 2019 111   306   0.241    0.05     861    0.23
 2019 112   307   0.241    0.05     861    0.23
 2019 113   308   0.241    0.05     862    0.23
 2019 114   309   0.241    0.05     863    0.23
 2019 115   310   0.241    0.05     864    0.23
 2019 116   311   0.242    0.05     864    0.23
 2019 117   312   0.242    0.05     865    0.23
 2019 118   313   0.242    0.05     865    0.23
 2019 119   314   0.242    0.05     866    0.23
 2019 120   315   0.242    0.05     867    0.23
 2019 121   316   0.242    0.05     868    0.23
 2019 122   317   0.243    0.05     868    0.23
 2019 123   318   0.243    0.05     868    0.23
 2019 124   319   0.243    0.05     869    0.23
 2019 125   320   0.243    0.05     869    0.23
 2019 126   321   0.243    0.05     870    0.23
 2019 127   322   0.243    0.05     871    0.23
 2019 128   323   0.243    0.05     871    0.23
 2019 129   324   0.243    0.05     871    0.24
 2019 130   325   0.243    0.05     871    0.24
 2019 131   326   0.243    0.05     871    0.24
 2019 132   327   0.243    0.05     872    0.24
 2019 133   328   0.244    0.05     872    0.24
 2019 134   329   0.244    0.05     873    0.24
 2019 135   330   0.244    0.05     874    0.24
 2019 136   331   0.244    0.05     874    0.24
 2019 137   332   0.244    0.05     874    0.24
 2019 138   333   0.244    0.05     874    0.24
 2019 139   334   0.244    0.05     874    0.24
 2019 140   335   0.244    0.05     874    0.24
 2019 141   336   0.244    0.05     875    0.24
 2019 142   337   0.244    0.05     875    0.24
 2019 143   338   0.244    0.05     876    0.24
 2019 144   339   0.245    0.05     877    0.24
 2019 145   340   0.245    0.05     878    0.24
 2019 146   341   0.245    0.05     878    0.24
 2019 147   342   0.245    0.05     880    0.24
 2019 148   343   0.246    0.05     882    0.24
 2019 149   344   0.247    0.05     885    0.24
 2019 150   345   0.247    0.05     887    0.24
 2019 151   346   0.248    0.06     890    0.24
 2019 152   347   0.249    0.06     893    0.24
 2019 153   348   0.249    0.06     897    0.24
 2019 154   349   0.250    0.06     899    0.24
 2019 155   350   0.251    0.06     902    0.24
 2019 156   351   0.251    0.06     904    0.24
 2019 157   352   0.252    0.06     906    0.24
 2019 158   353   0.252    0.06     907    0.24
 2019 159   354   0.252    0.06     908    0.24
 2019 160   355   0.252    0.06     908    0.24
 2019 161   356   0.252    0.06     909    0.25
 2019 162   357   0.253    0.06     910    0.25
 2019 163   358   0.253    0.06     911    0.25
 2019 164   359   0.253    0.06     911    0.25
 2019 165   360   0.253    0.06     912    0.25
 2019 166   361   0.253    0.06     913    0.25
 2019 167   362   0.253    0.06     913    0.25
 2019 168   363   0.254    0.06     914    0.25
 2019 169   364   0.254    0.06     914    0.25
 2019 170   365   0.254    0.06     915    0.25
 2019 171   366   0.254    0.06     915    0.25
 2019 172   367   0.254    0.06     915    0.25

*DSSAT Cropping System Model Ver. 4.8.0.019 -develop  APR 08, 2023 12:34:38

*RUN   4        : IITA-TMS-IBA000070        CSYCA048 UYAG1901    1
 MODEL          : CSYCA048 - Cassava
 EXPERIMENT     : UYAG1901 CS UYT_GXE
 DATA PATH      :
 TREATMENT  1   : IITA-TMS-IBA000070        CSYCA048
  
@YEAR DOY   DAS    MCFD   MDEPD    MWAD    MWTD
 2019 149     0   0.000    0.00       0    0.00
 2019 150     1   0.000    0.00       0    0.00
 2019 151     2   0.000    0.00       0    0.00
 2019 152     3   0.000    0.00       0    0.00
 2019 153     4   0.000    0.00       0    0.00
 2019 154     5   0.000    0.00       0    0.00
 2019 155     6   0.000    0.00       0    0.00
 2019 156     7   0.000    0.00       0    0.00
 2019 157     8   0.000    0.00       0    0.00
 2019 158     9   0.000    0.00       0    0.00
 2019 159    10   0.000    0.00       0    0.00
 2019 160    11   0.000    0.00       0    0.00
 2019 161    12   0.000    0.00       0    0.00
 2019 162    13   0.000    0.00       0    0.00
 2019 163    14   0.000    0.00       0    0.00
 2019 164    15   0.000    0.00       0    0.00
 2019 165    16   0.000    0.00       0    0.00
 2019 166    17   0.000    0.00       0    0.00
 2019 167    18   0.000    0.00       0    0.00
 2019 168    19   0.000    0.00       0    0.00
 2019 169    20   0.000    0.00       0    0.00
 2019 170    21   0.000    0.00       0    0.00
 2019 171    22   0.000    0.00       0    0.00
 2019 172    23   0.000    0.00       0    0.00
 2019 173    24   0.000    0.00       0    0.00
 2019 174    25   0.000    0.00       0    0.00
 2019 175    26   0.000    0.00       0    0.00
 2019 176    27   0.000    0.00       0    0.00
 2019 177    28   0.000    0.00       0    0.00
 2019 178    29   0.000    0.00       0    0.00
 2019 179    30   0.000    0.00       0    0.00
 2019 180    31   0.000    0.00       0    0.00
 2019 181    32   0.000    0.00       0    0.00
 2019 182    33   0.000    0.00       0    0.00
 2019 183    34   0.000    0.00       0    0.00
 2019 184    35   0.000    0.00       0    0.00
 2019 185    36   0.000    0.00       0    0.00
 2019 186    37   0.000    0.00       0    0.00
 2019 187    38   0.000    0.00       0    0.00
 2019 188    39   0.000    0.00       0    0.00
 2019 189    40   0.000    0.00       0    0.00
 2019 190    41   0.000    0.00       0    0.00
 2019 191    42   0.000    0.00       0    0.00
 2019 192    43   0.000    0.00       0    0.00
 2019 193    44   0.000    0.00       0    0.00
 2019 194    45   0.000    0.00       0    0.00
 2019 195    46   0.000    0.00       0    0.00
 2019 196    47   0.000    0.00       0    0.00
 2019 197    48   0.000    0.00       0    0.00
 2019 198    49   0.000    0.00       0    0.00
 2019 199    50   0.000    0.00       0    0.00
 2019 200    51   0.000    0.00       0    0.00
 2019 201    52   0.000    0.00       0    0.00
 2019 202    53   0.000    0.00       0    0.00
 2019 203    54   0.000    0.00       0    0.00
 2019 204    55   0.000    0.00       0    0.00
 2019 205    56   0.000    0.00       0    0.00
 2019 206    57   0.000    0.00       0    0.00
 2019 207    58   0.000    0.00       0    0.00
 2019 208    59   0.000    0.00       0    0.00
 2019 209    60   0.000    0.00       0    0.00
 2019 210    61   0.000    0.00       0    0.00
 2019 211    62   0.000    0.00       0    0.00
 2019 212    63   0.000    0.00       0    0.00
 2019 213    64   0.000    0.00       0    0.00
 2019 214    65   0.000    0.00       0    0.00
 2019 215    66   0.000    0.00       0    0.00
 2019 216    67   0.000    0.00       0    0.00
 2019 217    68   0.000    0.00       0    0.00
 2019 218    69   0.000    0.00       0    0.00
 2019 219    70   0.000    0.00       0    0.00
 2019 220    71   0.000    0.00       0    0.00
 2019 221    72   0.000    0.00       0    0.00
 2019 222    73   0.000    0.00       0    0.00
 2019 223    74   0.000    0.00       0    0.00
 2019 224    75   0.000    0.00       0    0.00
 2019 225    76   0.000    0.00       0    0.00
 2019 226    77   0.000    0.00       0    0.00
 2019 227    78   0.000    0.00       0    0.00
 2019 228    79   0.000    0.00       0    0.00
 2019 229    80   0.000    0.00       0    0.00
 2019 230    81   0.000    0.00       0    0.00
 2019 231    82   0.000    0.00       0    0.00
 2019 232    83   0.000    0.00       0    0.00
 2019 233    84   0.000    0.00       0    0.00
 2019 234    85   0.000    0.00       0    0.00
 2019 235    86   0.000    0.00       0    0.00
 2019 236    87   0.000    0.00       0    0.00
 2019 237    88   0.000    0.00       0    0.00
 2019 238    89   0.000    0.00       0    0.00
 2019 239    90   0.000    0.00       0    0.00
 2019 240    91   0.000    0.00       0    0.00
 2019 241    92   0.000    0.00       0    0.00
 2019 242    93   0.000    0.00       0    0.00
 2019 243    94   0.000    0.00       0    0.00
 2019 244    95   0.000    0.00       0    0.00
 2019 245    96   0.000    0.00       0    0.00
 2019 246    97   0.000    0.00       0    0.00
 2019 247    98   0.000    0.00       0    0.00
 2019 248    99   0.000    0.00       0    0.00
 2019 249   100   0.000    0.00       0    0.00
 2019 250   101   0.000    0.00       0    0.00
 2019 251   102   0.000    0.00       0    0.00
 2019 252   103   0.000    0.00       0    0.00
 2019 253   104   0.000    0.00       0    0.00
 2019 254   105   0.000    0.00       0    0.00
 2019 255   106   0.000    0.00       0    0.00
 2019 256   107   0.000    0.00       0    0.00
 2019 257   108   0.000    0.00       0    0.00
 2019 258   109   0.000    0.00       0    0.00
 2019 259   110   0.000    0.00       0    0.00
 2019 260   111   0.000    0.00       0    0.00
 2019 261   112   0.000    0.00       0    0.00
 2019 262   113   0.000    0.00       0    0.00
 2019 263   114   0.000    0.00       0    0.00
 2019 264   115   0.000    0.00       0    0.00
 2019 265   116   0.000    0.00       0    0.00
 2019 266   117   0.000    0.00       0    0.00
 2019 267   118   0.000    0.00       0    0.00
 2019 268   119   0.000    0.00       0    0.00
 2019 269   120   0.000    0.00       0    0.00
 2019 270   121   0.000    0.00       0    0.00
 2019 271   122   0.000    0.00       0    0.00
 2019 272   123   0.000    0.00       0    0.00
 2019 273   124   0.000    0.00       0    0.00
 2019 274   125   0.000    0.00       0    0.00
 2019 275   126   0.000    0.00       0    0.00
 2019 276   127   0.000    0.00       0    0.00
 2019 277   128   0.000    0.00       0    0.00
 2019 278   129   0.000    0.00       0    0.00
 2019 279   130   0.000    0.00       0    0.00
 2019 280   131   0.000    0.00       0    0.00
 2019 281   132   0.000    0.00       0    0.00
 2019 282   133   0.000    0.00       0    0.00
 2019 283   134   0.000    0.00       0    0.00
 2019 284   135   0.000    0.00       0    0.00
 2019 285   136   0.000    0.00       0    0.00
 2019 286   137   0.000    0.00       0    0.00
 2019 287   138   0.000    0.00       0    0.00
 2019 288   139   0.000    0.00       0    0.00
 2019 289   140   0.000    0.00       0    0.00
 2019 290   141   0.000    0.00       0    0.00
 2019 291   142   0.000    0.00       0    0.00
 2019 292   143   0.000    0.00       0    0.00
 2019 293   144   0.000    0.00       0    0.00
 2019 294   145   0.000    0.00       0    0.00
 2019 295   146   0.000    0.00       0    0.00
 2019 296   147   0.000    0.00       0    0.00
 2019 297   148   0.000    0.00       0    0.00
 2019 298   149   0.000    0.00       0    0.00
 2019 299   150   0.000    0.00       0    0.00
 2019 300   151   0.000    0.00       0    0.00
 2019 301   152   0.000    0.00       0    0.00
 2019 302   153   0.000    0.00       0    0.00
 2019 303   154   0.000    0.00       0    0.00
 2019 304   155   0.000    0.00       0    0.00
 2019 305   156   0.000    0.00       0    0.00
 2019 306   157   0.000    0.00       0    0.00
 2019 307   158   0.000    0.00       0    0.00
 2019 308   159   0.000    0.00       0    0.00
 2019 309   160   0.000    0.00       0    0.00
 2019 310   161   0.000    0.00       0    0.00
 2019 311   162   0.000    0.00       0    0.00
 2019 312   163   0.000    0.00       1    0.00
 2019 313   164   0.001    0.00       4    0.00
 2019 314   165   0.002    0.00       8    0.00
 2019 315   166   0.004    0.00      13    0.00
 2019 316   167   0.006    0.00      20    0.00
 2019 317   168   0.008    0.00      26    0.01
 2019 318   169   0.010    0.00      33    0.01
 2019 319   170   0.013    0.00      40    0.01
 2019 320   171   0.015    0.00      46    0.01
 2019 321   172   0.016    0.00      51    0.01
 2019 322   173   0.018    0.00      56    0.01
 2019 323   174   0.019    0.00      61    0.02
 2019 324   175   0.021    0.00      65    0.02
 2019 325   176   0.022    0.00      69    0.02
 2019 326   177   0.023    0.00      72    0.02
 2019 327   178   0.024    0.00      75    0.02
 2019 328   179   0.025    0.00      79    0.02
 2019 329   180   0.026    0.00      83    0.02
 2019 330   181   0.027    0.00      86    0.02
 2019 331   182   0.029    0.00      91    0.02
 2019 332   183   0.030    0.00      94    0.02
 2019 333   184   0.031    0.00      98    0.03
 2019 334   185   0.032    0.00     103    0.03
 2019 335   186   0.034    0.00     107    0.03
 2019 336   187   0.035    0.00     112    0.03
 2019 337   188   0.037    0.00     117    0.03
 2019 338   189   0.038    0.00     122    0.03
 2019 339   190   0.040    0.00     128    0.03
 2019 340   191   0.042    0.00     133    0.03
 2019 341   192   0.043    0.00     139    0.04
 2019 342   193   0.045    0.00     144    0.04
 2019 343   194   0.047    0.00     150    0.04
 2019 344   195   0.049    0.00     156    0.04
 2019 345   196   0.050    0.00     162    0.04
 2019 346   197   0.052    0.00     168    0.04
 2019 347   198   0.054    0.00     174    0.05
 2019 348   199   0.056    0.00     181    0.05
 2019 349   200   0.058    0.00     187    0.05
 2019 350   201   0.060    0.00     193    0.04
 2019 351   202   0.062    0.00     200    0.04
 2019 352   203   0.064    0.00     207    0.04
 2019 353   204   0.067    0.00     216    0.05
 2019 354   205   0.069    0.00     225    0.05
 2019 355   206   0.072    0.00     233    0.06
 2019 356   207   0.075    0.00     242    0.06
 2019 357   208   0.077    0.00     251    0.05
 2019 358   209   0.079    0.00     257    0.05
 2019 359   210   0.081    0.01     265    0.05
 2019 360   211   0.084    0.01     275    0.05
 2019 361   212   0.087    0.01     284    0.04
 2019 362   213   0.089    0.01     293    0.04
 2019 363   214   0.092    0.01     302    0.04
 2019 364   215   0.095    0.01     311    0.04
 2019 365   216   0.097    0.01     318    0.04
 2020 001   217   0.099    0.01     327    0.03
 2020 002   218   0.102    0.01     337    0.03
 2020 003   219   0.105    0.01     346    0.03
 2020 004   220   0.107    0.01     354    0.03
 2020 005   221   0.110    0.01     363    0.03
 2020 006   222   0.112    0.01     373    0.03
 2020 007   223   0.116    0.01     384    0.03
 2020 008   224   0.119    0.01     395    0.02
 2020 009   225   0.122    0.01     408    0.02
 2020 010   226   0.126    0.01     421    0.02
 2020 011   227   0.129    0.01     431    0.05
 2020 012   228   0.132    0.01     443    0.06
 2020 013   229   0.136    0.01     456    0.06
 2020 014   230   0.139    0.02     469    0.07
 2020 015   231   0.143    0.02     482    0.07
 2020 016   232   0.146    0.02     494    0.06
 2020 017   233   0.149    0.02     506    0.05
 2020 018   234   0.152    0.02     515    0.05
 2020 019   235   0.155    0.02     525    0.04
 2020 020   236   0.157    0.02     534    0.04
 2020 021   237   0.160    0.02     545    0.04
 2020 022   238   0.163    0.02     555    0.03
 2020 023   239   0.165    0.02     563    0.03
 2020 024   240   0.167    0.02     572    0.03
 2020 025   241   0.169    0.02     580    0.02
 2020 026   242   0.171    0.02     585    0.02
 2020 027   243   0.172    0.03     591    0.02
 2020 028   244   0.174    0.03     598    0.02
 2020 029   245   0.176    0.03     606    0.02
 2020 030   246   0.178    0.03     612    0.01
 2020 031   247   0.180    0.03     619    0.01
 2020 032   248   0.182    0.03     627    0.01
 2020 033   249   0.184    0.03     634    0.01
 2020 034   250   0.185    0.03     640    0.01
 2020 035   251   0.187    0.03     647    0.01
 2020 036   252   0.189    0.03     655    0.01
 2020 037   253   0.191    0.03     662    0.01
 2020 038   254   0.193    0.03     669    0.01
 2020 039   255   0.195    0.03     676    0.01
 2020 040   256   0.196    0.03     683    0.01
 2020 041   257   0.198    0.03     690    0.01
 2020 042   258   0.200    0.03     698    0.01
 2020 043   259   0.202    0.04     704    0.01
 2020 044   260   0.203    0.04     709    0.01
 2020 045   261   0.204    0.04     715    0.01
 2020 046   262   0.206    0.04     720    0.01
 2020 047   263   0.207    0.04     727    0.01
 2020 048   264   0.209    0.04     733    0.01
 2020 049   265   0.211    0.04     739    0.01
 2020 050   266   0.212    0.04     746    0.01
 2020 051   267   0.214    0.04     751    0.01
 2020 052   268   0.215    0.04     758    0.00
 2020 053   269   0.217    0.04     764    0.00
 2020 054   270   0.218    0.04     770    0.00
 2020 055   271   0.220    0.04     776    0.00
 2020 056   272   0.221    0.04     781    0.03
 2020 057   273   0.223    0.04     787    0.02
 2020 058   274   0.224    0.04     791    0.04
 2020 059   275   0.225    0.04     797    0.06
 2020 060   276   0.226    0.05     802    0.05
 2020 061   277   0.227    0.05     806    0.06
 2020 062   278   0.229    0.05     811    0.21
 2020 063   279   0.230    0.05     816    0.19
 2020 064   280   0.231    0.05     820    0.23
 2020 065   281   0.232    0.05     825    0.21
 2020 066   282   0.233    0.05     829    0.22
 2020 067   283   0.234    0.05     833    0.22
 2020 068   284   0.235    0.05     837    0.23
 2020 069   285   0.236    0.05     841    0.22
 2020 070   286   0.237    0.05     844    0.23
 2020 071   287   0.238    0.05     848    0.23
 2020 072   288   0.238    0.05     851    0.23
 2020 073   289   0.239    0.05     854    0.23
 2020 074   290   0.240    0.05     857    0.23
 2020 075   291   0.241    0.05     861    0.23
 2020 076   292   0.242    0.05     864    0.23
 2020 077   293   0.242    0.05     867    0.23
 2020 078   294   0.243    0.05     870    0.23
 2020 079   295   0.244    0.05     873    0.23
 2020 080   296   0.245    0.05     876    0.24
 2020 081   297   0.245    0.05     879    0.24
 2020 082   298   0.246    0.05     882    0.24
 2020 083   299   0.247    0.05     885    0.24
 2020 084   300   0.247    0.06     888    0.24
 2020 085   301   0.248    0.06     890    0.24
 2020 086   302   0.248    0.06     892    0.24
 2020 087   303   0.249    0.06     894    0.24
 2020 088   304   0.249    0.06     897    0.24
 2020 089   305   0.250    0.06     899    0.24
 2020 090   306   0.250    0.06     901    0.24
 2020 091   307   0.251    0.06     903    0.24
 2020 092   308   0.251    0.06     905    0.24
 2020 093   309   0.252    0.06     907    0.24
 2020 094   310   0.252    0.06     908    0.24
 2020 095   311   0.252    0.06     909    0.25
 2020 096   312   0.253    0.06     911    0.25
 2020 097   313   0.253    0.06     913    0.25
 2020 098   314   0.254    0.06     914    0.25
 2020 099   315   0.254    0.06     917    0.25
 2020 100   316   0.255    0.06     918    0.25
 2020 101   317   0.255    0.06     920    0.25
 2020 102   318   0.256    0.06     922    0.22
 2020 103   319   0.256    0.06     924    0.22
 2020 104   320   0.256    0.06     925    0.25
 2020 105   321   0.257    0.06     927    0.24
 2020 106   322   0.257    0.06     928    0.25
 2020 107   323   0.257    0.06     930    0.25
 2020 108   324   0.258    0.06     931    0.25
 2020 109   325   0.258    0.06     932    0.25
 2020 110   326   0.258    0.06     933    0.25
 2020 111   327   0.258    0.06     934    0.22
 2020 112   328   0.258    0.06     934    0.26
 2020 113   329   0.259    0.06     935    0.24
 2020 114   330   0.259    0.06     936    0.26
 2020 115   331   0.259    0.06     936    0.25
 2020 116   332   0.259    0.06     937    0.25
 2020 117   333   0.259    0.06     937    0.25
 2020 118   334   0.259    0.06     938    0.25
 2020 119   335   0.259    0.06     938    0.25
 2020 120   336   0.259    0.06     939    0.25
 2020 121   337   0.260    0.06     939    0.25
 2020 122   338   0.260    0.06     939    0.25
 2020 123   339   0.260    0.06     940    0.25
 2020 124   340   0.260    0.06     940    0.25
 2020 125   341   0.260    0.06     941    0.25
 2020 126   342   0.260    0.06     941    0.25
 2020 127   343   0.260    0.06     942    0.25
 2020 128   344   0.260    0.06     942    0.25
 2020 129   345   0.260    0.06     942    0.25
 2020 130   346   0.260    0.06     942    0.25
 2020 131   347   0.260    0.06     943    0.25
 2020 132   348   0.261    0.06     943    0.25
 2020 133   349   0.261    0.06     944    0.25
 2020 134   350   0.261    0.06     944    0.25
 2020 135   351   0.261    0.06     944    0.25
 2020 136   352   0.261    0.06     944    0.25
 2020 137   353   0.261    0.06     944    0.25
 2020 138   354   0.261    0.06     945    0.25
 2020 139   355   0.261    0.06     945    0.26
 2020 140   356   0.261    0.06     946    0.26
 2020 141   357   0.261    0.06     946    0.26
 2020 142   358   0.261    0.06     947    0.26
 2020 143   359   0.261    0.06     947    0.26
 2020 144   360   0.261    0.06     947    0.26
 2020 145   361   0.261    0.06     947    0.26
 2020 146   362   0.261    0.06     947    0.26
 2020 147   363   0.261    0.06     947    0.26
 2020 148   364   0.262    0.06     947    0.26
 2020 149   365   0.262    0.06     948    0.26
 2020 150   366   0.262    0.06     948    0.26
 2020 151   367   0.262    0.06     949    0.26
 2020 152   368   0.262    0.06     949    0.26

*DSSAT Cropping System Model Ver. 4.8.0.019 -develop  APR 08, 2023 12:34:38

*RUN   5        : IITA-TMS-IBA000070        CSYCA048 UYIB1701    1
 MODEL          : CSYCA048 - Cassava
 EXPERIMENT     : UYIB1701 CS UYT_GXE
 DATA PATH      :
 TREATMENT  1   : IITA-TMS-IBA000070        CSYCA048
  
@YEAR DOY   DAS    MCFD   MDEPD    MWAD    MWTD
 2017 249     0   0.000    0.00       0    0.00
 2017 250     1   0.000    0.00       0    0.00
 2017 251     2   0.000    0.00       0    0.00
 2017 252     3   0.000    0.00       0    0.00
 2017 253     4   0.000    0.00       0    0.00
 2017 254     5   0.000    0.00       0    0.00
 2017 255     6   0.000    0.00       0    0.00
 2017 256     7   0.000    0.00       0    0.00
 2017 257     8   0.000    0.00       0    0.00
 2017 258     9   0.000    0.00       0    0.00
 2017 259    10   0.000    0.00       0    0.00
 2017 260    11   0.000    0.00       0    0.00
 2017 261    12   0.000    0.00       0    0.00
 2017 262    13   0.000    0.00       0    0.00
 2017 263    14   0.000    0.00       0    0.00
 2017 264    15   0.000    0.00       0    0.00
 2017 265    16   0.000    0.00       0    0.00
 2017 266    17   0.000    0.00       0    0.00
 2017 267    18   0.000    0.00       0    0.00
 2017 268    19   0.000    0.00       0    0.00
 2017 269    20   0.000    0.00       0    0.00
 2017 270    21   0.000    0.00       0    0.00
 2017 271    22   0.000    0.00       0    0.00
 2017 272    23   0.000    0.00       0    0.00
 2017 273    24   0.000    0.00       0    0.00
 2017 274    25   0.000    0.00       0    0.00
 2017 275    26   0.000    0.00       0    0.00
 2017 276    27   0.000    0.00       0    0.00
 2017 277    28   0.000    0.00       0    0.00
 2017 278    29   0.000    0.00       0    0.00
 2017 279    30   0.000    0.00       0    0.00
 2017 280    31   0.000    0.00       0    0.00
 2017 281    32   0.000    0.00       0    0.00
 2017 282    33   0.000    0.00       0    0.00
 2017 283    34   0.000    0.00       0    0.00
 2017 284    35   0.000    0.00       0    0.00
 2017 285    36   0.000    0.00       0    0.00
 2017 286    37   0.000    0.00       0    0.00
 2017 287    38   0.000    0.00       0    0.00
 2017 288    39   0.000    0.00       0    0.00
 2017 289    40   0.000    0.00       0    0.00
 2017 290    41   0.000    0.00       0    0.00
 2017 291    42   0.000    0.00       0    0.00
 2017 292    43   0.000    0.00       0    0.00
 2017 293    44   0.000    0.00       0    0.00
 2017 294    45   0.000    0.00       0    0.00
 2017 295    46   0.000    0.00       0    0.00
 2017 296    47   0.000    0.00       0    0.00
 2017 297    48   0.000    0.00       0    0.00
 2017 298    49   0.000    0.00       0    0.00
 2017 299    50   0.000    0.00       0    0.00
 2017 300    51   0.000    0.00       0    0.00
 2017 301    52   0.000    0.00       0    0.00
 2017 302    53   0.000    0.00       0    0.00
 2017 303    54   0.000    0.00       0    0.00
 2017 304    55   0.000    0.00       0    0.00
 2017 305    56   0.000    0.00       0    0.00
 2017 306    57   0.000    0.00       0    0.00
 2017 307    58   0.000    0.00       0    0.00
 2017 308    59   0.000    0.00       0    0.00
 2017 309    60   0.000    0.00       0    0.00
 2017 310    61   0.000    0.00       0    0.00
 2017 311    62   0.000    0.00       0    0.00
 2017 312    63   0.000    0.00       0    0.00
 2017 313    64   0.000    0.00       0    0.00
 2017 314    65   0.000    0.00       0    0.00
 2017 315    66   0.000    0.00       0    0.00
 2017 316    67   0.000    0.00       0    0.00
 2017 317    68   0.000    0.00       0    0.00
 2017 318    69   0.000    0.00       0    0.00
 2017 319    70   0.000    0.00       0    0.00
 2017 320    71   0.000    0.00       0    0.00
 2017 321    72   0.000    0.00       0    0.00
 2017 322    73   0.000    0.00       0    0.00
 2017 323    74   0.000    0.00       0    0.00
 2017 324    75   0.000    0.00       0    0.00
 2017 325    76   0.000    0.00       0    0.00
 2017 326    77   0.000    0.00       0    0.00
 2017 327    78   0.000    0.00       0    0.00
 2017 328    79   0.000    0.00       0    0.00
 2017 329    80   0.000    0.00       0    0.00
 2017 330    81   0.000    0.00       0    0.00
 2017 331    82   0.000    0.00       0    0.00
 2017 332    83   0.000    0.00       0    0.00
 2017 333    84   0.000    0.00       0    0.00
 2017 334    85   0.000    0.00       0    0.00
 2017 335    86   0.000    0.00       0    0.00
 2017 336    87   0.000    0.00       0    0.00
 2017 337    88   0.000    0.00       0    0.00
 2017 338    89   0.000    0.00       0    0.00
 2017 339    90   0.000    0.00       0    0.00
 2017 340    91   0.000    0.00       0    0.00
 2017 341    92   0.000    0.00       0    0.00
 2017 342    93   0.000    0.00       0    0.00
 2017 343    94   0.000    0.00       0    0.00
 2017 344    95   0.000    0.00       0    0.00
 2017 345    96   0.000    0.00       0    0.00
 2017 346    97   0.000    0.00       0    0.00
 2017 347    98   0.000    0.00       0    0.00
 2017 348    99   0.000    0.00       0    0.00
 2017 349   100   0.000    0.00       0    0.00
 2017 350   101   0.000    0.00       0    0.00
 2017 351   102   0.000    0.00       0    0.00
 2017 352   103   0.000    0.00       0    0.00
 2017 353   104   0.000    0.00       0    0.00
 2017 354   105   0.000    0.00       0    0.00
 2017 355   106   0.000    0.00       0    0.00
 2017 356   107   0.000    0.00       0    0.00
 2017 357   108   0.000    0.00       0    0.00
 2017 358   109   0.000    0.00       0    0.00
 2017 359   110   0.000    0.00       0    0.00
 2017 360   111   0.000    0.00       0    0.00
 2017 361   112   0.000    0.00       0    0.00
 2017 362   113   0.000    0.00       0    0.00
 2017 363   114   0.000    0.00       0    0.00
 2017 364   115   0.000    0.00       0    0.00
 2017 365   116   0.000    0.00       0    0.00
 2018 001   117   0.000    0.00       0    0.00
 2018 002   118   0.000    0.00       0    0.00
 2018 003   119   0.000    0.00       0    0.00
 2018 004   120   0.000    0.00       0    0.00
 2018 005   121   0.000    0.00       0    0.00
 2018 006   122   0.000    0.00       0    0.00
 2018 007   123   0.000    0.00       0    0.00
 2018 008   124   0.000    0.00       0    0.00
 2018 009   125   0.000    0.00       0    0.00
 2018 010   126   0.000    0.00       0    0.00
 2018 011   127   0.000    0.00       0    0.00
 2018 012   128   0.000    0.00       0    0.00
 2018 013   129   0.000    0.00       0    0.00
 2018 014   130   0.000    0.00       0    0.00
 2018 015   131   0.000    0.00       0    0.00
 2018 016   132   0.000    0.00       0    0.00
 2018 017   133   0.000    0.00       0    0.00
 2018 018   134   0.000    0.00       0    0.00
 2018 019   135   0.000    0.00       0    0.00
 2018 020   136   0.000    0.00       0    0.00
 2018 021   137   0.000    0.00       0    0.00
 2018 022   138   0.000    0.00       0    0.00
 2018 023   139   0.000    0.00       0    0.00
 2018 024   140   0.000    0.00       0    0.00
 2018 025   141   0.000    0.00       0    0.00
 2018 026   142   0.000    0.00       0    0.00
 2018 027   143   0.000    0.00       0    0.00
 2018 028   144   0.000    0.00       0    0.00
 2018 029   145   0.000    0.00       0    0.00
 2018 030   146   0.000    0.00       0    0.00
 2018 031   147   0.000    0.00       0    0.00
 2018 032   148   0.000    0.00       1    0.00
 2018 033   149   0.001    0.00       4    0.00
 2018 034   150   0.003    0.00       8    0.00
 2018 035   151   0.005    0.00      17    0.00
 2018 036   152   0.008    0.00      26    0.00
 2018 037   153   0.011    0.00      35    0.01
 2018 038   154   0.014    0.00      45    0.01
 2018 039   155   0.017    0.00      53    0.01
 2018 040   156   0.019    0.00      60    0.01
 2018 041   157   0.021    0.00      67    0.02
 2018 042   158   0.023    0.00      72    0.02
 2018 043   159   0.024    0.00      77    0.02
 2018 044   160   0.026    0.00      82    0.02
 2018 045   161   0.028    0.00      88    0.02
 2018 046   162   0.030    0.00      95    0.02
 2018 047   163   0.032    0.00     102    0.03
 2018 048   164   0.035    0.00     110    0.03
[...]

*RUN  20        : IITA-TMS-IBA000070        CSYCA048 UYZA1901    1
 MODEL          : CSYCA048 - Cassava
 EXPERIMENT     : UYZA1901 CS UYT_GXE
 DATA PATH      :
 TREATMENT  1   : IITA-TMS-IBA000070        CSYCA048
  
@YEAR DOY   DAS    MCFD   MDEPD    MWAD    MWTD
 2019 172     0   0.000    0.00       0    0.00
 2019 173     1   0.000    0.00       0    0.00
 2019 174     2   0.000    0.00       0    0.00
 2019 175     3   0.000    0.00       0    0.00
 2019 176     4   0.000    0.00       0    0.00
 2019 177     5   0.000    0.00       0    0.00
 2019 178     6   0.000    0.00       0    0.00
 2019 179     7   0.000    0.00       0    0.00
 2019 180     8   0.000    0.00       0    0.00
 2019 181     9   0.000    0.00       0    0.00
 2019 182    10   0.000    0.00       0    0.00
 2019 183    11   0.000    0.00       0    0.00
 2019 184    12   0.000    0.00       0    0.00
 2019 185    13   0.000    0.00       0    0.00
 2019 186    14   0.000    0.00       0    0.00
 2019 187    15   0.000    0.00       0    0.00
 2019 188    16   0.000    0.00       0    0.00
 2019 189    17   0.000    0.00       0    0.00
 2019 190    18   0.000    0.00       0    0.00
 2019 191    19   0.000    0.00       0    0.00
 2019 192    20   0.000    0.00       0    0.00
 2019 193    21   0.000    0.00       0    0.00
 2019 194    22   0.000    0.00       0    0.00
 2019 195    23   0.000    0.00       0    0.00
 2019 196    24   0.000    0.00       0    0.00
 2019 197    25   0.000    0.00       0    0.00
 2019 198    26   0.000    0.00       0    0.00
 2019 199    27   0.000    0.00       0    0.00
 2019 200    28   0.000    0.00       0    0.00
 2019 201    29   0.000    0.00       0    0.00
 2019 202    30   0.000    0.00       0    0.00
 2019 203    31   0.000    0.00       0    0.00
 2019 204    32   0.000    0.00       0    0.00
 2019 205    33   0.000    0.00       0    0.00
 2019 206    34   0.000    0.00       0    0.00
 2019 207    35   0.000    0.00       0    0.00
 2019 208    36   0.000    0.00       0    0.00
 2019 209    37   0.000    0.00       0    0.00
 2019 210    38   0.000    0.00       0    0.00
 2019 211    39   0.000    0.00       0    0.00
 2019 212    40   0.000    0.00       0    0.00
 2019 213    41   0.000    0.00       0    0.00
 2019 214    42   0.000    0.00       0    0.00
 2019 215    43   0.000    0.00       0    0.00
 2019 216    44   0.000    0.00       0    0.00
 2019 217    45   0.000    0.00       0    0.00
 2019 218    46   0.000    0.00       0    0.00
 2019 219    47   0.000    0.00       0    0.00
 2019 220    48   0.000    0.00       0    0.00
 2019 221    49   0.000    0.00       0    0.00
 2019 222    50   0.000    0.00       0    0.00
 2019 223    51   0.000    0.00       0    0.00
 2019 224    52   0.000    0.00       0    0.00
 2019 225    53   0.000    0.00       0    0.00
 2019 226    54   0.000    0.00       0    0.00
 2019 227    55   0.000    0.00       0    0.00
 2019 228    56   0.000    0.00       0    0.00
 2019 229    57   0.000    0.00       0    0.00
 2019 230    58   0.000    0.00       0    0.00
 2019 231    59   0.000    0.00       0    0.00
 2019 232    60   0.000    0.00       0    0.00
 2019 233    61   0.000    0.00       0    0.00
 2019 234    62   0.000    0.00       0    0.00
 2019 235    63   0.000    0.00       0    0.00
 2019 236    64   0.000    0.00       0    0.00
 2019 237    65   0.000    0.00       0    0.00
 2019 238    66   0.000    0.00       0    0.00
 2019 239    67   0.000    0.00       0    0.00
 2019 240    68   0.000    0.00       0    0.00
 2019 241    69   0.000    0.00       0    0.00
 2019 242    70   0.000    0.00       0    0.00
 2019 243    71   0.000    0.00       0    0.00
 2019 244    72   0.000    0.00       0    0.00
 2019 245    73   0.000    0.00       0    0.00
 2019 246    74   0.000    0.00       0    0.00
 2019 247    75   0.000    0.00       0    0.00
 2019 248    76   0.000    0.00       0    0.00
 2019 249    77   0.000    0.00       0    0.00
 2019 250    78   0.000    0.00       0    0.00
 2019 251    79   0.000    0.00       0    0.00
 2019 252    80   0.000    0.00       0    0.00
 2019 253    81   0.000    0.00       0    0.00
 2019 254    82   0.000    0.00       0    0.00
 2019 255    83   0.000    0.00       0    0.00
 2019 256    84   0.000    0.00       0    0.00
 2019 257    85   0.000    0.00       0    0.00
 2019 258    86   0.000    0.00       0    0.00
 2019 259    87   0.000    0.00       0    0.00
 2019 260    88   0.000    0.00       0    0.00
 2019 261    89   0.000    0.00       0    0.00
 2019 262    90   0.000    0.00       0    0.00
 2019 263    91   0.000    0.00       0    0.00
 2019 264    92   0.000    0.00       0    0.00
 2019 265    93   0.000    0.00       0    0.00
 2019 266    94   0.000    0.00       0    0.00
 2019 267    95   0.000    0.00       0    0.00
 2019 268    96   0.000    0.00       0    0.00
 2019 269    97   0.000    0.00       0    0.00
 2019 270    98   0.000    0.00       0    0.00
 2019 271    99   0.000    0.00       0    0.00
 2019 272   100   0.000    0.00       0    0.00
 2019 273   101   0.000    0.00       0    0.00
 2019 274   102   0.000    0.00       0    0.00
 2019 275   103   0.000    0.00       0    0.00
 2019 276   104   0.000    0.00       0    0.00
 2019 277   105   0.000    0.00       0    0.00
 2019 278   106   0.000    0.00       0    0.00
 2019 279   107   0.000    0.00       0    0.00
 2019 280   108   0.000    0.00       0    0.00
 2019 281   109   0.000    0.00       0    0.00
 2019 282   110   0.000    0.00       0    0.00
 2019 283   111   0.000    0.00       0    0.00
 2019 284   112   0.000    0.00       0    0.00
 2019 285   113   0.000    0.00       0    0.00
 2019 286   114   0.000    0.00       0    0.00
 2019 287   115   0.000    0.00       0    0.00
 2019 288   116   0.000    0.00       0    0.00
 2019 289   117   0.000    0.00       0    0.00
 2019 290   118   0.000    0.00       0    0.00
 2019 291   119   0.000    0.00       0    0.00
 2019 292   120   0.000    0.00       0    0.00
 2019 293   121   0.000    0.00       0    0.00
 2019 294   122   0.000    0.00       0    0.00
 2019 295   123   0.000    0.00       0    0.00
 2019 296   124   0.000    0.00       0    0.00
 2019 297   125   0.000    0.00       0    0.00
 2019 298   126   0.000    0.00       0    0.00
 2019 299   127   0.000    0.00       0    0.00
 2019 300   128   0.000    0.00       0    0.00
 2019 301   129   0.000    0.00       0    0.00
 2019 302   130   0.000    0.00       0    0.00
 2019 303   131   0.000    0.00       0    0.00
 2019 304   132   0.000    0.00       0    0.00
 2019 305   133   0.000    0.00       0    0.00
 2019 306   134   0.000    0.00       0    0.00
 2019 307   135   0.000    0.00       0    0.00
 2019 308   136   0.000    0.00       0    0.00
 2019 309   137   0.000    0.00       0    0.00
 2019 310   138   0.000    0.00       0    0.00
 2019 311   139   0.000    0.00       0    0.00
 2019 312   140   0.000    0.00       0    0.00
 2019 313   141   0.000    0.00       0    0.00
 2019 314   142   0.000    0.00       0    0.00
 2019 315   143   0.000    0.00       0    0.00
 2019 316   144   0.000    0.00       0    0.00
 2019 317   145   0.000    0.00       0    0.00
 2019 318   146   0.000    0.00       0    0.00
 2019 319   147   0.000    0.00       0    0.00
 2019 320   148   0.000    0.00       0    0.00
 2019 321   149   0.000    0.00       0    0.00
 2019 322   150   0.000    0.00       0    0.00
 2019 323   151   0.000    0.00       0    0.00
 2019 324   152   0.000    0.00       0    0.00
 2019 325   153   0.000    0.00       0    0.00
 2019 326   154   0.000    0.00       0    0.00
 2019 327   155   0.000    0.00       0    0.00
 2019 328   156   0.000    0.00       0    0.00
 2019 329   157   0.000    0.00       0    0.00
 2019 330   158   0.000    0.00       0    0.00
 2019 331   159   0.000    0.00       0    0.00
 2019 332   160   0.000    0.00       0    0.00
 2019 333   161   0.000    0.00       0    0.00
 2019 334   162   0.000    0.00       0    0.00
 2019 335   163   0.000    0.00       0    0.00
 2019 336   164   0.000    0.00       0    0.00
 2019 337   165   0.000    0.00       0    0.00
 2019 338   166   0.000    0.00       0    0.00
 2019 339   167   0.000    0.00       0    0.00
 2019 340   168   0.000    0.00       0    0.00
 2019 341   169   0.000    0.00       0    0.00
 2019 342   170   0.000    0.00       0    0.00
 2019 343   171   0.000    0.00       1    0.00
 2019 344   172   0.001    0.00       3    0.00
 2019 345   173   0.002    0.00       5    0.00
 2019 346   174   0.003    0.00       8    0.00
 2019 347   175   0.004    0.00      12    0.00
 2019 348   176   0.005    0.00      17    0.00
 2019 349   177   0.007    0.00      22    0.00
 2019 350   178   0.009    0.00      27    0.00
 2019 351   179   0.011    0.00      33    0.00
 2019 352   180   0.013    0.00      39    0.00
 2019 353   181   0.014    0.00      45    0.01
 2019 354   182   0.016    0.00      51    0.01
 2019 355   183   0.017    0.00      55    0.01
 2019 356   184   0.019    0.00      59    0.01
 2019 357   185   0.020    0.00      63    0.01
 2019 358   186   0.021    0.00      66    0.01
 2019 359   187   0.022    0.00      69    0.01
 2019 360   188   0.023    0.00      72    0.01
 2019 361   189   0.024    0.00      76    0.01
 2019 362   190   0.025    0.00      79    0.01
 2019 363   191   0.026    0.00      82    0.01
 2019 364   192   0.027    0.00      85    0.01
 2019 365   193   0.028    0.00      88    0.01
 2020 001   194   0.029    0.00      92    0.01
 2020 002   195   0.030    0.00      95    0.01
 2020 003   196   0.030    0.00      96    0.01
 2020 004   197   0.031    0.00      99    0.01
 2020 005   198   0.032    0.00     101    0.01
 2020 006   199   0.033    0.00     105    0.01
 2020 007   200   0.035    0.00     110    0.01
 2020 008   201   0.036    0.00     115    0.01
 2020 009   202   0.038    0.00     121    0.01
 2020 010   203   0.040    0.00     126    0.01
 2020 011   204   0.042    0.00     133    0.01
 2020 012   205   0.044    0.00     140    0.01
 2020 013   206   0.046    0.00     147    0.01
 2020 014   207   0.049    0.00     156    0.01
 2020 015   208   0.052    0.00     165    0.01
 2020 016   209   0.054    0.00     173    0.01
 2020 017   210   0.056    0.00     179    0.02
 2020 018   211   0.058    0.00     185    0.02
 2020 019   212   0.059    0.00     192    0.02
 2020 020   213   0.061    0.00     198    0.02
 2020 021   214   0.064    0.00     206    0.02
 2020 022   215   0.066    0.00     214    0.02
 2020 023   216   0.069    0.00     222    0.02
 2020 024   217   0.071    0.00     229    0.02
 2020 025   218   0.073    0.00     236    0.02
 2020 026   219   0.074    0.00     241    0.02
 2020 027   220   0.076    0.00     248    0.02
 2020 028   221   0.079    0.00     256    0.02
 2020 029   222   0.081    0.01     263    0.02
 2020 030   223   0.083    0.01     270    0.02
 2020 031   224   0.085    0.01     278    0.02
 2020 032   225   0.088    0.01     287    0.02
 2020 033   226   0.090    0.01     296    0.02
 2020 034   227   0.093    0.01     306    0.02
 2020 035   228   0.096    0.01     315    0.02
 2020 036   229   0.099    0.01     326    0.02
 2020 037   230   0.102    0.01     338    0.02
 2020 038   231   0.106    0.01     351    0.02
 2020 039   232   0.110    0.01     364    0.02
 2020 040   233   0.113    0.01     376    0.02
 2020 041   234   0.118    0.01     393    0.02
 2020 042   235   0.123    0.01     410    0.02
 2020 043   236   0.127    0.01     423    0.02
 2020 044   237   0.130    0.01     434    0.02
 2020 045   238   0.133    0.01     447    0.02
 2020 046   239   0.138    0.02     462    0.02
 2020 047   240   0.141    0.02     476    0.02
 2020 048   241   0.146    0.02     494    0.02
 2020 049   242   0.152    0.02     514    0.02
 2020 050   243   0.157    0.02     532    0.02
 2020 051   244   0.162    0.02     551    0.02
 2020 052   245   0.167    0.02     571    0.02
 2020 053   246   0.173    0.03     592    0.02
 2020 054   247   0.178    0.03     613    0.02
 2020 055   248   0.183    0.03     632    0.02
 2020 056   249   0.188    0.03     649    0.02
 2020 057   250   0.191    0.03     663    0.02
 2020 058   251   0.195    0.03     678    0.02
 2020 059   252   0.199    0.03     695    0.02
 2020 060   253   0.204    0.04     711    0.02
 2020 061   254   0.208    0.04     728    0.01
 2020 062   255   0.213    0.04     747    0.01
 2020 063   256   0.217    0.04     764    0.01
 2020 064   257   0.221    0.04     779    0.01
 2020 065   258   0.224    0.04     793    0.01
 2020 066   259   0.227    0.05     806    0.01
 2020 067   260   0.231    0.05     820    0.01
 2020 068   261   0.234    0.05     832    0.01
 2020 069   262   0.237    0.05     845    0.01
 2020 070   263   0.240    0.05     857    0.01
 2020 071   264   0.243    0.05     869    0.01
 2020 072   265   0.245    0.05     880    0.01
 2020 073   266   0.248    0.06     889    0.01
 2020 074   267   0.249    0.06     896    0.01
 2020 075   268   0.251    0.06     904    0.01
 2020 076   269   0.253    0.06     913    0.01
 2020 077   270   0.255    0.06     920    0.01
 2020 078   271   0.257    0.06     930    0.01
 2020 079   272   0.259    0.06     937    0.01
 2020 080   273   0.261    0.06     947    0.03
 2020 081   274   0.263    0.06     954    0.05
 2020 082   275   0.265    0.06     963    0.04
 2020 083   276   0.267    0.07     971    0.26
 2020 084   277   0.269    0.07     980    0.21
 2020 085   278   0.271    0.07     987    0.28
 2020 086   279   0.272    0.07     992    0.21
 2020 087   280   0.273    0.07     998    0.16
 2020 088   281   0.275    0.07    1003    0.13
 2020 089   282   0.276    0.07    1009    0.28
 2020 090   283   0.277    0.07    1015    0.24
 2020 091   284   0.279    0.07    1020    0.28
 2020 092   285   0.280    0.07    1025    0.26
 2020 093   286   0.281    0.07    1029    0.20
 2020 094   287   0.281    0.07    1033    0.24
 2020 095   288   0.282    0.07    1037    0.21
 2020 096   289   0.283    0.07    1041    0.19
 2020 097   290   0.284    0.07    1045    0.29
 2020 098   291   0.285    0.08    1049    0.26
 2020 099   292   0.286    0.08    1052    0.29
 2020 100   293   0.286    0.08    1055    0.28
 2020 101   294   0.287    0.08    1058    0.29
 2020 102   295   0.288    0.08    1060    0.28
 2020 103   296   0.288    0.08    1062    0.21
 2020 104   297   0.289    0.08    1064    0.16
 2020 105   298   0.289    0.08    1066    0.30
 2020 106   299   0.289    0.08    1067    0.25
 2020 107   300   0.290    0.08    1069    0.19
 2020 108   301   0.290    0.08    1070    0.14
 2020 109   302   0.290    0.08    1071    0.11
 2020 110   303   0.291    0.08    1073    0.08
 2020 111   304   0.291    0.08    1074    0.06
 2020 112   305   0.291    0.08    1074    0.16
 2020 113   306   0.291    0.08    1076    0.27
 2020 114   307   0.291    0.08    1076    0.27
 2020 115   308   0.292    0.08    1077    0.29
 2020 116   309   0.292    0.08    1078    0.28
 2020 117   310   0.292    0.08    1078    0.29
 2020 118   311   0.292    0.08    1079    0.29
 2020 119   312   0.292    0.08    1080    0.29
 2020 120   313   0.292    0.08    1080    0.29
 2020 121   314   0.292    0.08    1081    0.29
 2020 122   315   0.292    0.08    1081    0.29
 2020 123   316   0.292    0.08    1081    0.29
 2020 124   317   0.293    0.08    1082    0.29
 2020 125   318   0.293    0.08    1082    0.29
 2020 126   319   0.293    0.08    1083    0.29
 2020 127   320   0.293    0.08    1083    0.29
 2020 128   321   0.293    0.08    1083    0.29
 2020 129   322   0.293    0.08    1083    0.29
 2020 130   323   0.293    0.08    1084    0.29
 2020 131   324   0.293    0.08    1084    0.29
 2020 132   325   0.293    0.08    1085    0.28
 2020 133   326   0.293    0.08    1085    0.24
 2020 134   327   0.294    0.08    1086    0.18
 2020 135   328   0.294    0.08    1086    0.19
 2020 136   329   0.294    0.08    1086    0.29
 2020 137   330   0.294    0.08    1086    0.27
 2020 138   331   0.294    0.08    1086    0.30
 2020 139   332   0.294    0.08    1086    0.29
 2020 140   333   0.294    0.08    1087    0.30
 2020 141   334   0.294    0.08    1087    0.29
 2020 142   335   0.294    0.08    1088    0.29
 2020 143   336   0.294    0.08    1088    0.29
 2020 144   337   0.294    0.08    1089    0.29
 2020 145   338   0.294    0.08    1089    0.29
 2020 146   339   0.294    0.08    1089    0.29
 2020 147   340   0.294    0.08    1089    0.29
 2020 148   341   0.294    0.08    1089    0.29
 2020 149   342   0.294    0.08    1089    0.29
 2020 150   343   0.294    0.08    1089    0.28
 2020 151   344   0.294    0.08    1089    0.30
 2020 152   345   0.294    0.08    1089    0.29
 2020 153   346   0.294    0.08    1090    0.30
 2020 154   347   0.295    0.08    1090    0.29
 2020 155   348   0.295    0.08    1091    0.30
 2020 156   349   0.295    0.08    1091    0.29
 2020 157   350   0.295    0.08    1091    0.29
 2020 158   351   0.295    0.08    1091    0.29
 2020 159   352   0.295    0.08    1091    0.29
 2020 160   353   0.295    0.08    1091    0.29
 2020 161   354   0.295    0.08    1091    0.29
 2020 162   355   0.295    0.08    1091    0.29
 2020 163   356   0.295    0.08    1091    0.29
 2020 164   357   0.295    0.08    1091    0.29
 2020 165   358   0.295    0.08    1091    0.29
 2020 166   359   0.295    0.08    1091    0.29
 2020 167   360   0.295    0.08    1091    0.29
 2020 168   361   0.295    0.08    1091    0.29
 2020 169   362   0.295    0.08    1092    0.29
 2020 170   363   0.295    0.08    1092    0.29
 2020 171   364   0.295    0.08    1093    0.29
 2020 172   365   0.295    0.08    1093    0.29
 2020 173   366   0.295    0.08    1094    0.30
 2020 174   367   0.295    0.08    1094    0.30
 2020 175   368   0.295    0.08    1094    0.30
 2020 176   369   0.295    0.08    1094    0.30
 2020 177   370   0.295    0.08    1094    0.30
 2020 178   371   0.295    0.08    1094    0.30
 2020 179   372   0.295    0.08    1094    0.30
 2020 180   373   0.295    0.08    1094    0.30
 2020 181   374   0.295    0.08    1094    0.30
 2020 182   375   0.295    0.08    1094    0.30
 2020 183   376   0.295    0.08    1094    0.30
 2020 184   377   0.295    0.08    1094    0.30
 2020 185   378   0.295    0.08    1094    0.30
 2020 186   379   0.295    0.08    1094    0.30
 2020 187   380   0.295    0.08    1094    0.30
 2020 188   381   0.295    0.08    1094    0.30
 2020 189   382   0.295    0.08    1094    0.30
 2020 190   383   0.295    0.08    1094    0.30
 2020 191   384   0.295    0.08    1094    0.30
 2020 192   385   0.295    0.08    1094    0.30
 2020 193   386   0.295    0.08    1094    0.30
 2020 194   387   0.295    0.08    1094    0.30
 2020 195   388   0.295    0.08    1094    0.30
 2020 196   389   0.296    0.08    1095    0.30
 2020 197   390   0.296    0.08    1095    0.30
 2020 198   391   0.296    0.08    1095    0.30
 2020 199   392   0.296    0.08    1096    0.30
 2020 200   393   0.296    0.08    1096    0.30
 2020 201   394   0.296    0.08    1097    0.30
 2020 202   395   0.296    0.08    1097    0.30
 2020 203   396   0.296    0.08    1097    0.30
 2020 204   397   0.296    0.08    1097    0.30
 2020 205   398   0.296    0.08    1097    0.30
 2020 206   399   0.296    0.08    1097    0.30
 2020 207   400   0.296    0.08    1097    0.30
 2020 208   401   0.296    0.08    1097    0.30
 2020 209   402   0.296    0.08    1097    0.30
 2020 210   403   0.296    0.08    1097    0.30
 2020 211   404   0.296    0.08    1097    0.30
 2020 212   405   0.296    0.08    1097    0.30
 2020 213   406   0.296    0.08    1097    0.30
 2020 214   407   0.296    0.08    1097    0.28
 2020 215   408   0.296    0.08    1097    0.30
 2020 216   409   0.296    0.08    1097    0.29
