*SIMULATION OVERVIEW FILE
  

*DSSAT Cropping System Model Ver. 4.8.0.019 -develop  APR 08, 2023 12:34:37

*RUN   1        : IITA-TMS-IBA000070        CSYCA048 UYAB1901    1
 MODEL          : CSYCA048 - Cassava
 EXPERIMENT     : UYAB1901 CS UYT_GXE
 DATA PATH      :
 TREATMENT  1   : IITA-TMS-IBA000070        CSYCA048


 CROP           : Cassava          CULTIVAR : IITA-TMS-IBA0000 ECOTYPE :990017
 STARTING DATE  : JUN 17 2019
 PLANTING DATE  : JUN 18 2019      PLANTS/m2 :     1.0    ROW SPACING : 100.cm
 HARVEST DATE   : JUL 27 2020
 WEATHER        : UYAB   2019
 SOIL           : NG04184010     TEXTURE : SL    -  ISRIC soilgrids + HC27
 SOIL INITIAL C : DEPTH:200cm EXTR. H2O:193.2mm  NO3:  0.0kg/ha  NH4:  0.0kg/ha
 WATER BALANCE  : RAINFED
 IRRIGATION     : NOT IRRIGATED
 NITROGEN BAL.  : NOT SIMULATED ; NO N-STRESS
 N-FERTILIZER   :
 RESIDUE/MANURE :
 ENVIRONM. OPT. : DAYL=    0.00  SRAD=    0.00  TMAX=    0.00  TMIN=    0.00
                  RAIN=    0.00  CO2 =    0.00  DEW =    0.00  WIND=    0.00
 SIMULATION OPT : WATER   :Y  NITROGEN:N  N-FIX:N  PHOSPH :N  PESTS  :N
                  PHOTO   :R  ET      :R  INFIL:S  HYDROL :R  SOM    :G
                  CO2 411ppm  NSWIT   :1  EVAP :S  SOIL   :1  STEMP  :D
 MANAGEMENT OPT : PLANTING:R  IRRIG   :N  FERT :N  RESIDUE:N  HARVEST:R
                  WEATHER :M  TILLAGE :Y

*SUMMARY OF SOIL AND GENETIC INPUT PARAMETERS

   SOIL LOWER UPPER   SAT  EXTR  INIT   ROOT   BULK     pH    NO3    NH4    ORG
  DEPTH LIMIT LIMIT    SW    SW    SW   DIST   DENS                          C
   cm   cm3/cm3    cm3/cm3    cm3/cm3         g/cm3         ugN/g  ugN/g     %
-------------------------------------------------------------------------------
  0-  5 0.137 0.230 0.389 0.093 0.230   1.00   1.21   5.55   0.00   0.00   2.19
  5- 15 0.149 0.243 0.391 0.094 0.243   0.85   1.22   5.61   0.00   0.00   1.86
 15- 30 0.165 0.262 0.395 0.097 0.262   0.70   1.26   5.70   0.00   0.00   1.42
 30- 45 0.179 0.279 0.400 0.100 0.279   0.50   1.31   5.82   0.00   0.00   0.91
 45- 60 0.179 0.279 0.400 0.100 0.279   0.50   1.31   5.82   0.00   0.00   0.91
 60- 90 0.178 0.277 0.399 0.099 0.277   0.00   1.37   5.96   0.00   0.00   0.52
 90-120 0.172 0.268 0.396 0.096 0.268   0.00   1.40   6.08   0.00   0.00   0.38
120-150 0.169 0.264 0.395 0.095 0.264   0.00   1.42   6.14   0.00   0.00   0.31
150-180 0.169 0.264 0.395 0.095 0.264   0.00   1.42   6.14   0.00   0.00   0.31
180-200 0.169 0.264 0.395 0.095 0.264   0.00   1.42   6.14   0.00   0.00   0.31

TOT-200  34.0  53.4  79.2  19.3  53.4  <--cm   -  kg/ha-->    0.0    0.0      0
SOIL ALBEDO    : 0.10      EVAPORATION LIMIT : 6.00         MIN. FACTOR  : 1.00
RUNOFF CURVE # :75.00      DRAINAGE RATE     : 0.50         FERT. FACTOR : 1.00

 Cassava          CULTIVAR: UC0020-IITA-TMS-IBA0000   ECOTYPE: 990017
  B01ND B12ND B23ND B34ND BR1FX BR2FX BR3FX BR4FX
 1098. 1369.  998.  101.  2.50  2.00  2.00  1.50
  LAXS  SLAS LLIFA LPEFR LNSLP NODWT NODLT
 920.0  226.1800.0   0.3  1.38 10.56  3.49


*SIMULATED CROP AND SOIL STATUS AT MAIN DEVELOPMENT STAGES
  
 RUN NO.      1   UYT_GXE                                                     

 ...... DATE ....... GROWTH STAGE    BIOMASS   LEAF       CROP N      STRESS
 YEARDOY DOM MON DAP ............... kg/ha  AREA NUMBER kg/ha    %   H2O     N
 2020173  21 Jun 369 1 1stBranch      8170 0.585  171.3    0 -99.0  0.33  0.00
 2020209  27 Jul 405 * Harvest        2083 0.881  184.7    0 -99.0  0.00  0.00
  
 BIOMASS  = Above-ground dry weight (Excl.seed;kg/ha)
 LEAF AREA  = Leaf area index (m2/m2)
 LEAF NUMBER  = Leaf number produced on main axis
 CROP N  = Above-ground N (Excl.seed;kg/ha)
 CROP N%  = Above-ground N concentration(%)
 H2O STRESS = Photosynthesis stress, prior to stage (0=none,1=max)
 N STRESS = Photosynthesis stress, prior to stage (0=none,1=max)
  

*MAIN GROWTH AND DEVELOPMENT VARIABLES

@     VARIABLE                           SIMULATED   MEASURED
      --------                           ---------   --------
      Germination  (dap)                      8        -99
      Emergence    (dap)                      8        -99
      1stBranch    (dap)                    369         87
      Harvest      (dap)                   2083      12507
      AboveGround (kg dm/ha)              10196       4729
      Roots+seed residue (kg dm/ha)         -99        -99
      Senesced (kg dm/ha)                  2019        -99
      Product (kg dm/ha)                   2083      12507
      AboveGroundVegetative (kg dm/ha)    10196       4729
      HarvestIndex (ratio)                 0.21       0.73
      Reserves (kg dm/ha)                   104        -99
      Product unit wt (g dm)                -99        -99
      Product number (/m2)                  -99        -99
      Product number (/shoot)             -99.0      -99.0
      Maximum leaf area index               4.2        5.0
      Final leaf number (one axis)        184.7      -99.0
      Assimilated N (kg/ha)               -99.0      -99.0
      AboveGround N (kg/ha)               -99.0      -99.0
      Root N (kg/ha)                      -99.0      -99.0
      Senesced N (kg/ha)                    0.0      -99.0
      Product N (kg/ha)                   -99.0      -99.0
      AboveGroundVegetative N (kg/ha)       0.0      -99.0
      N HarvestIndex (ratio)             -99.00     -99.00
      Product N (% dm)                    -99.0      -99.0
      AboveGroundVegetative N (% dm)      -99.0      -99.0

*ENVIRONMENTAL AND STRESS FACTORS

|-------Branching tier-------|-------------Environment--------------|----------------Stress-----------------|
                              |--------Average-------|---Cumulative--|         (0=Min, 1=Max Stress)         |
                         Time  Temp  Temp Solar Photop         Evapo |----Water---|--Nitrogen--|--Phosphorus-|
                         Span   Max   Min   Rad  [day]   Rain  Trans  Photo         Photo         Photo
                         days     C     C MJ/m2     hr     mm     mm  synth Growth  synth Growth  synth Growth
--------------------------------------------------------------------------------------------------------------
 Germinate  - 1stBranch   361  30.9  20.6  19.0  11.99 1579.2  963.6  0.332  0.361  0.000  0.000 -99.00 -99.00
 1stBranch  - 2ndBranch    37  27.6  21.4  15.8  12.49  363.2  124.9  0.000  0.000  0.000  0.000 -99.00 -99.00
 16thBranch - Harvest       0 -99.0 -99.0 -99.0 -99.00    0.0    0.0  0.000  0.000  0.000  0.000 -99.00 -99.00
  
 1stBranch  - Harvest     398  30.6  20.7  18.7  12.04 1942.4 1088.5  0.301  0.327  0.000  0.000 -99.00 -99.00
--------------------------------------------------------------------------------------------------------------


*RESOURCE PRODUCTIVITY

 Growing season length: 398 days 

 Precipitation during growth season       1942.4 mm[rain]
   Dry Matter Productivity                  0.52 kg[DM]/m3[rain]          =    5.2 kg[DM]/ha per mm[rain]
   Yield Productivity                       0.11 kg[Sroot yield]/m3[rain] =    1.1 kg[yield]/ha per mm[rain]

 Evapotranspiration during growth season  1088.5 mm[ET]
   Dry Matter Productivity                  0.94 kg[DM]/m3[ET]            =    9.4 kg[DM]/ha per mm[ET]
   Yield Productivity                       0.19 kg[Sroot yield]/m3[ET]   =    1.9 kg[yield]/ha per mm[ET]

 Transpiration during growth season        431.9 mm[EP]
   Dry Matter Productivity                  2.36 kg[DM]/m3[EP]            =   23.6 kg[DM]/ha per mm[EP]
   Yield Productivity                       0.48 kg[Sroot yield]/m3[EP]   =    4.8 kg[yield]/ha per mm[EP]

--------------------------------------------------------------------------------------------------------------

          CASSAVA YIELD :     2083 kg/ha    [Dry weight] 

**************************************************************************************************************
  

*DSSAT Cropping System Model Ver. 4.8.0.019 -develop  APR 08, 2023 12:34:37

*RUN   2        : IITA-TMS-IBA000070        CSYCA048 UYAG1701    1
 MODEL          : CSYCA048 - Cassava
 EXPERIMENT     : UYAG1701 CS UYT_GXE
 DATA PATH      :
 TREATMENT  1   : IITA-TMS-IBA000070        CSYCA048


 CROP           : Cassava          CULTIVAR : IITA-TMS-IBA0000 ECOTYPE :990017
 STARTING DATE  : AUG 29 2017
 PLANTING DATE  : AUG 30 2017      PLANTS/m2 :     1.0    ROW SPACING : 100.cm
 HARVEST DATE   : JUL 13 2018
 WEATHER        : UYOW   2017
 SOIL           : NG04283331     TEXTURE : SL    - ISRIC soilgrids + HC27
 SOIL INITIAL C : DEPTH:200cm EXTR. H2O:205.8mm  NO3:  0.0kg/ha  NH4:  0.0kg/ha
 WATER BALANCE  : RAINFED
 IRRIGATION     : NOT IRRIGATED
 NITROGEN BAL.  : NOT SIMULATED ; NO N-STRESS
 N-FERTILIZER   :
 RESIDUE/MANURE :
 ENVIRONM. OPT. : DAYL=    0.00  SRAD=    0.00  TMAX=    0.00  TMIN=    0.00
                  RAIN=    0.00  CO2 =    0.00  DEW =    0.00  WIND=    0.00
 SIMULATION OPT : WATER   :Y  NITROGEN:N  N-FIX:N  PHOSPH :N  PESTS  :N
                  PHOTO   :R  ET      :R  INFIL:S  HYDROL :R  SOM    :G
                  CO2 407ppm  NSWIT   :1  EVAP :S  SOIL   :2  STEMP  :D
 MANAGEMENT OPT : PLANTING:R  IRRIG   :N  FERT :N  RESIDUE:N  HARVEST:R
                  WEATHER :M  TILLAGE :Y

*SUMMARY OF SOIL AND GENETIC INPUT PARAMETERS

   SOIL LOWER UPPER   SAT  EXTR  INIT   ROOT   BULK     pH    NO3    NH4    ORG
  DEPTH LIMIT LIMIT    SW    SW    SW   DIST   DENS                          C
   cm   cm3/cm3    cm3/cm3    cm3/cm3         g/cm3         ugN/g  ugN/g     %
-------------------------------------------------------------------------------
  0-  5 0.136 0.237 0.391 0.101 0.237   1.00   1.31   4.90   0.00   0.00   2.43
  5- 15 0.148 0.250 0.394 0.102 0.250   0.85   1.33   4.97   0.00   0.00   2.07
 15- 30 0.164 0.269 0.398 0.105 0.269   0.70   1.36   5.06   0.00   0.00   1.57
 30- 45 0.179 0.285 0.403 0.106 0.285   0.50   1.41   5.18   0.00   0.00   1.01
 45- 60 0.179 0.285 0.403 0.106 0.285   0.50   1.41   5.18   0.00   0.00   1.01
 60- 80 0.178 0.283 0.402 0.105 0.283   0.38   1.47   5.32   0.00   0.00   0.59
 80-100 0.178 0.283 0.402 0.105 0.283   0.38   1.47   5.32   0.00   0.00   0.59
100-150 0.167 0.268 0.397 0.101 0.268   0.05   1.52   5.50   0.00   0.00   0.33
150-200 0.167 0.268 0.397 0.101 0.268   0.05   1.52   5.50   0.00   0.00   0.33

TOT-200  33.8  54.4  79.7  20.6  54.4  <--cm   -  kg/ha-->    0.0    0.0      0
SOIL ALBEDO    : 0.10      EVAPORATION LIMIT : 6.00         MIN. FACTOR  : 1.00
RUNOFF CURVE # :75.00      DRAINAGE RATE     : 0.50         FERT. FACTOR : 1.00

 Cassava          CULTIVAR: UC0020-IITA-TMS-IBA0000   ECOTYPE: 990017
  B01ND B12ND B23ND B34ND BR1FX BR2FX BR3FX BR4FX
 1098. 1369.  998.  101.  2.50  2.00  2.00  1.50
  LAXS  SLAS LLIFA LPEFR LNSLP NODWT NODLT
 920.0  226.1800.0   0.3  1.38 10.56  3.49


*SIMULATED CROP AND SOIL STATUS AT MAIN DEVELOPMENT STAGES
  
 RUN NO.      2   UYT_GXE                                                     

 ...... DATE ....... GROWTH STAGE    BIOMASS   LEAF       CROP N      STRESS
 YEARDOY DOM MON DAP ............... kg/ha  AREA NUMBER kg/ha    %   H2O     N
 2018194  13 Jul 317 * Harvest        2527 0.772  155.7    0 -99.0  0.00  0.00
  

*MAIN GROWTH AND DEVELOPMENT VARIABLES

@     VARIABLE                           SIMULATED   MEASURED
      --------                           ---------   --------
      Germination  (dap)                      9        -99
      Emergence    (dap)                      9        -99
      Harvest      (dap)                   2527      12043
      AboveGround (kg dm/ha)               8574       9514
      Roots+seed residue (kg dm/ha)         578        -99
      Senesced (kg dm/ha)                  1555        -99
      Product (kg dm/ha)                   2527      12043
      AboveGroundVegetative (kg dm/ha)     8574       9514
      HarvestIndex (ratio)                 0.22       0.56
      Reserves (kg dm/ha)                   125        -99
      Product unit wt (g dm)                -99        -99
      Product number (/m2)                  -99        -99
      Product number (/shoot)             -99.0      -99.0
      Maximum leaf area index               3.3        5.0
      Final leaf number (one axis)        155.7      -99.0
      Assimilated N (kg/ha)               -99.0      -99.0
      AboveGround N (kg/ha)               -99.0      -99.0
      Root N (kg/ha)                      -99.0      -99.0
      Senesced N (kg/ha)                    0.0      -99.0
      Product N (kg/ha)                   -99.0      -99.0
      AboveGroundVegetative N (kg/ha)       0.0      -99.0
      N HarvestIndex (ratio)             -99.00     -99.00
      Product N (% dm)                    -99.0      -99.0
      AboveGroundVegetative N (% dm)      -99.0      -99.0

*ENVIRONMENTAL AND STRESS FACTORS

|-------Branching tier-------|-------------Environment--------------|----------------Stress-----------------|
                              |--------Average-------|---Cumulative--|         (0=Min, 1=Max Stress)         |
                         Time  Temp  Temp Solar Photop         Evapo |----Water---|--Nitrogen--|--Phosphorus-|
                         Span   Max   Min   Rad  [day]   Rain  Trans  Photo         Photo         Photo
                         days     C     C MJ/m2     hr     mm     mm  synth Growth  synth Growth  synth Growth
--------------------------------------------------------------------------------------------------------------
 Germinate  - 1stBranch   309  29.2  21.7  16.8  11.95 1175.4 1860.5  0.225  0.354  0.000  0.000 -99.00 -99.00
 16thBranch - Harvest       0 -99.0 -99.0 -99.0 -99.00    0.0    0.0  0.000  0.000  0.000  0.000 -99.00 -99.00
  
 1stBranch  - Harvest     309  29.2  21.7  16.8  11.95 1175.4  897.0  0.225  0.354  0.000  0.000 -99.00 -99.00
--------------------------------------------------------------------------------------------------------------


*RESOURCE PRODUCTIVITY

 Growing season length: 309 days 

 Precipitation during growth season       1175.4 mm[rain]
   Dry Matter Productivity                  0.73 kg[DM]/m3[rain]          =    7.3 kg[DM]/ha per mm[rain]
   Yield Productivity                       0.21 kg[Sroot yield]/m3[rain] =    2.1 kg[yield]/ha per mm[rain]

 Evapotranspiration during growth season   897.0 mm[ET]
   Dry Matter Productivity                  0.96 kg[DM]/m3[ET]            =    9.6 kg[DM]/ha per mm[ET]
   Yield Productivity                       0.28 kg[Sroot yield]/m3[ET]   =    2.8 kg[yield]/ha per mm[ET]

 Transpiration during growth season        367.7 mm[EP]
   Dry Matter Productivity                  2.33 kg[DM]/m3[EP]            =   23.3 kg[DM]/ha per mm[EP]
   Yield Productivity                       0.69 kg[Sroot yield]/m3[EP]   =    6.9 kg[yield]/ha per mm[EP]

--------------------------------------------------------------------------------------------------------------

          CASSAVA YIELD :     2527 kg/ha    [Dry weight] 

**************************************************************************************************************
  

*DSSAT Cropping System Model Ver. 4.8.0.019 -develop  APR 08, 2023 12:34:38

*RUN   3        : IITA-TMS-IBA000070        CSYCA048 UYAG1801    1
 MODEL          : CSYCA048 - Cassava
 EXPERIMENT     : UYAG1801 CS UYT_GXE
 DATA PATH      :
 TREATMENT  1   : IITA-TMS-IBA000070        CSYCA048


 CROP           : Cassava          CULTIVAR : IITA-TMS-IBA0000 ECOTYPE :990017
 STARTING DATE  : JUN 20 2018
 PLANTING DATE  : JUN 21 2018      PLANTS/m2 :     1.0    ROW SPACING : 100.cm
 HARVEST DATE   : JUN 21 2019
 WEATHER        : UYOW   2018
 SOIL           : NG04283331     TEXTURE : SL    - ISRIC soilgrids + HC27
 SOIL INITIAL C : DEPTH:200cm EXTR. H2O:205.8mm  NO3:  0.0kg/ha  NH4:  0.0kg/ha
 WATER BALANCE  : RAINFED
 IRRIGATION     : NOT IRRIGATED
 NITROGEN BAL.  : NOT SIMULATED ; NO N-STRESS
 N-FERTILIZER   :
 RESIDUE/MANURE :
 ENVIRONM. OPT. : DAYL=    0.00  SRAD=    0.00  TMAX=    0.00  TMIN=    0.00
                  RAIN=    0.00  CO2 =    0.00  DEW =    0.00  WIND=    0.00
 SIMULATION OPT : WATER   :Y  NITROGEN:N  N-FIX:N  PHOSPH :N  PESTS  :N
                  PHOTO   :R  ET      :R  INFIL:S  HYDROL :R  SOM    :G
                  CO2 408ppm  NSWIT   :1  EVAP :S  SOIL   :2  STEMP  :D
 MANAGEMENT OPT : PLANTING:R  IRRIG   :N  FERT :N  RESIDUE:N  HARVEST:R
                  WEATHER :M  TILLAGE :Y

*SUMMARY OF SOIL AND GENETIC INPUT PARAMETERS

   SOIL LOWER UPPER   SAT  EXTR  INIT   ROOT   BULK     pH    NO3    NH4    ORG
  DEPTH LIMIT LIMIT    SW    SW    SW   DIST   DENS                          C
   cm   cm3/cm3    cm3/cm3    cm3/cm3         g/cm3         ugN/g  ugN/g     %
-------------------------------------------------------------------------------
  0-  5 0.136 0.237 0.391 0.101 0.237   1.00   1.31   4.90   0.00   0.00   2.43
  5- 15 0.148 0.250 0.394 0.102 0.250   0.85   1.33   4.97   0.00   0.00   2.07
 15- 30 0.164 0.269 0.398 0.105 0.269   0.70   1.36   5.06   0.00   0.00   1.57
 30- 45 0.179 0.285 0.403 0.106 0.285   0.50   1.41   5.18   0.00   0.00   1.01
 45- 60 0.179 0.285 0.403 0.106 0.285   0.50   1.41   5.18   0.00   0.00   1.01
 60- 80 0.178 0.283 0.402 0.105 0.283   0.38   1.47   5.32   0.00   0.00   0.59
 80-100 0.178 0.283 0.402 0.105 0.283   0.38   1.47   5.32   0.00   0.00   0.59
100-150 0.167 0.268 0.397 0.101 0.268   0.05   1.52   5.50   0.00   0.00   0.33
150-200 0.167 0.268 0.397 0.101 0.268   0.05   1.52   5.50   0.00   0.00   0.33

TOT-200  33.8  54.4  79.7  20.6  54.4  <--cm   -  kg/ha-->    0.0    0.0      0
SOIL ALBEDO    : 0.10      EVAPORATION LIMIT : 6.00         MIN. FACTOR  : 1.00
RUNOFF CURVE # :75.00      DRAINAGE RATE     : 0.50         FERT. FACTOR : 1.00

 Cassava          CULTIVAR: UC0020-IITA-TMS-IBA0000   ECOTYPE: 990017
  B01ND B12ND B23ND B34ND BR1FX BR2FX BR3FX BR4FX
 1098. 1369.  998.  101.  2.50  2.00  2.00  1.50
  LAXS  SLAS LLIFA LPEFR LNSLP NODWT NODLT
 920.0  226.1800.0   0.3  1.38 10.56  3.49


*SIMULATED CROP AND SOIL STATUS AT MAIN DEVELOPMENT STAGES
  
 RUN NO.      3   UYT_GXE                                                     

 ...... DATE ....... GROWTH STAGE    BIOMASS   LEAF       CROP N      STRESS
 YEARDOY DOM MON DAP ............... kg/ha  AREA NUMBER kg/ha    %   H2O     N
 2019134  14 May 327 1 1stBranch      8446 0.404  167.3    0 -99.0  0.18  0.00
 2019172  21 Jun 365 * Harvest        5423 0.555  183.1    0 -99.0  0.00  0.00
  

*MAIN GROWTH AND DEVELOPMENT VARIABLES

@     VARIABLE                           SIMULATED   MEASURED
      --------                           ---------   --------
      Germination  (dap)                     10        -99
      Emergence    (dap)                     10        -99
      1stBranch    (dap)                    327         88
      Harvest      (dap)                   5423       9363
      AboveGround (kg dm/ha)               9281      11875
      Roots+seed residue (kg dm/ha)         533        -99
      Senesced (kg dm/ha)                  1769        -99
      Product (kg dm/ha)                   5423       9363
      AboveGroundVegetative (kg dm/ha)     9281      11875
      HarvestIndex (ratio)                 0.36       0.44
      Reserves (kg dm/ha)                   270        -99
      Product unit wt (g dm)                -99        -99
      Product number (/m2)                  -99        -99
      Product number (/shoot)             -99.0      -99.0
      Maximum leaf area index               3.6        5.0
      Final leaf number (one axis)        183.1      -99.0
      Assimilated N (kg/ha)               -99.0      -99.0
      AboveGround N (kg/ha)               -99.0      -99.0
      Root N (kg/ha)                      -99.0      -99.0
      Senesced N (kg/ha)                    0.0      -99.0
      Product N (kg/ha)                   -99.0      -99.0
      AboveGroundVegetative N (kg/ha)       0.0      -99.0
      N HarvestIndex (ratio)             -99.00     -99.00
      Product N (% dm)                    -99.0      -99.0
      AboveGroundVegetative N (% dm)      -99.0      -99.0

*ENVIRONMENTAL AND STRESS FACTORS

|-------Branching tier-------|-------------Environment--------------|----------------Stress-----------------|
                              |--------Average-------|---Cumulative--|         (0=Min, 1=Max Stress)         |
                         Time  Temp  Temp Solar Photop         Evapo |----Water---|--Nitrogen--|--Phosphorus-|
                         Span   Max   Min   Rad  [day]   Rain  Trans  Photo         Photo         Photo
                         days     C     C MJ/m2     hr     mm     mm  synth Growth  synth Growth  synth Growth
--------------------------------------------------------------------------------------------------------------
 Germinate  - 1stBranch   317  29.0  21.8  16.6  11.94 1857.8 2892.0  0.175  0.284  0.000  0.000 -99.00 -99.00
 1stBranch  - 2ndBranch    39  28.5  22.8  16.4  12.40  304.7  266.8  0.000  0.004  0.000  0.000 -99.00 -99.00
 16thBranch - Harvest       0 -99.0 -99.0 -99.0 -99.00    0.0    0.0  0.000  0.000  0.000  0.000 -99.00 -99.00
  
 1stBranch  - Harvest     356  29.0  21.9  16.6  11.99 2162.5 1173.5  0.156  0.253  0.000  0.000 -99.00 -99.00
--------------------------------------------------------------------------------------------------------------


*RESOURCE PRODUCTIVITY

 Growing season length: 356 days 

 Precipitation during growth season       2162.5 mm[rain]
   Dry Matter Productivity                  0.43 kg[DM]/m3[rain]          =    4.3 kg[DM]/ha per mm[rain]
   Yield Productivity                       0.25 kg[Sroot yield]/m3[rain] =    2.5 kg[yield]/ha per mm[rain]

 Evapotranspiration during growth season  1173.5 mm[ET]
   Dry Matter Productivity                  0.79 kg[DM]/m3[ET]            =    7.9 kg[DM]/ha per mm[ET]
   Yield Productivity                       0.46 kg[Sroot yield]/m3[ET]   =    4.6 kg[yield]/ha per mm[ET]

 Transpiration during growth season        531.1 mm[EP]
   Dry Matter Productivity                  1.75 kg[DM]/m3[EP]            =   17.5 kg[DM]/ha per mm[EP]
   Yield Productivity                       1.02 kg[Sroot yield]/m3[EP]   =   10.2 kg[yield]/ha per mm[EP]

--------------------------------------------------------------------------------------------------------------

          CASSAVA YIELD :     5423 kg/ha    [Dry weight] 

**************************************************************************************************************
  

*DSSAT Cropping System Model Ver. 4.8.0.019 -develop  APR 08, 2023 12:34:38

*RUN   4        : IITA-TMS-IBA000070        CSYCA048 UYAG1901    1
 MODEL          : CSYCA048 - Cassava
 EXPERIMENT     : UYAG1901 CS UYT_GXE
 DATA PATH      :
 TREATMENT  1   : IITA-TMS-IBA000070        CSYCA048


 CROP           : Cassava          CULTIVAR : IITA-TMS-IBA0000 ECOTYPE :990017
 STARTING DATE  : MAY 30 2019
 PLANTING DATE  : MAY 31 2019      PLANTS/m2 :     1.0    ROW SPACING : 100.cm
 HARVEST DATE   : MAY 31 2020
 WEATHER        : UYOW   2019
 SOIL           : NG04283331     TEXTURE : SL    - ISRIC soilgrids + HC27
 SOIL INITIAL C : DEPTH:200cm EXTR. H2O:205.8mm  NO3:  0.0kg/ha  NH4:  0.0kg/ha
 WATER BALANCE  : RAINFED
 IRRIGATION     : NOT IRRIGATED
 NITROGEN BAL.  : NOT SIMULATED ; NO N-STRESS
 N-FERTILIZER   :
 RESIDUE/MANURE :
 ENVIRONM. OPT. : DAYL=    0.00  SRAD=    0.00  TMAX=    0.00  TMIN=    0.00
                  RAIN=    0.00  CO2 =    0.00  DEW =    0.00  WIND=    0.00
 SIMULATION OPT : WATER   :Y  NITROGEN:N  N-FIX:N  PHOSPH :N  PESTS  :N
                  PHOTO   :R  ET      :R  INFIL:S  HYDROL :R  SOM    :G
                  CO2 411ppm  NSWIT   :1  EVAP :S  SOIL   :2  STEMP  :D
 MANAGEMENT OPT : PLANTING:R  IRRIG   :N  FERT :N  RESIDUE:N  HARVEST:R
                  WEATHER :M  TILLAGE :Y

*SUMMARY OF SOIL AND GENETIC INPUT PARAMETERS

   SOIL LOWER UPPER   SAT  EXTR  INIT   ROOT   BULK     pH    NO3    NH4    ORG
  DEPTH LIMIT LIMIT    SW    SW    SW   DIST   DENS                          C
   cm   cm3/cm3    cm3/cm3    cm3/cm3         g/cm3         ugN/g  ugN/g     %
-------------------------------------------------------------------------------
  0-  5 0.136 0.237 0.391 0.101 0.237   1.00   1.31   4.90   0.00   0.00   2.43
  5- 15 0.148 0.250 0.394 0.102 0.250   0.85   1.33   4.97   0.00   0.00   2.07
 15- 30 0.164 0.269 0.398 0.105 0.269   0.70   1.36   5.06   0.00   0.00   1.57
 30- 45 0.179 0.285 0.403 0.106 0.285   0.50   1.41   5.18   0.00   0.00   1.01
 45- 60 0.179 0.285 0.403 0.106 0.285   0.50   1.41   5.18   0.00   0.00   1.01
 60- 80 0.178 0.283 0.402 0.105 0.283   0.38   1.47   5.32   0.00   0.00   0.59
 80-100 0.178 0.283 0.402 0.105 0.283   0.38   1.47   5.32   0.00   0.00   0.59
100-150 0.167 0.268 0.397 0.101 0.268   0.05   1.52   5.50   0.00   0.00   0.33
150-200 0.167 0.268 0.397 0.101 0.268   0.05   1.52   5.50   0.00   0.00   0.33

TOT-200  33.8  54.4  79.7  20.6  54.4  <--cm   -  kg/ha-->    0.0    0.0      0
SOIL ALBEDO    : 0.10      EVAPORATION LIMIT : 6.00         MIN. FACTOR  : 1.00
RUNOFF CURVE # :75.00      DRAINAGE RATE     : 0.50         FERT. FACTOR : 1.00

 Cassava          CULTIVAR: UC0020-IITA-TMS-IBA0000   ECOTYPE: 990017
  B01ND B12ND B23ND B34ND BR1FX BR2FX BR3FX BR4FX
 1098. 1369.  998.  101.  2.50  2.00  2.00  1.50
  LAXS  SLAS LLIFA LPEFR LNSLP NODWT NODLT
 920.0  226.1800.0   0.3  1.38 10.56  3.49


*SIMULATED CROP AND SOIL STATUS AT MAIN DEVELOPMENT STAGES
  
 RUN NO.      4   UYT_GXE                                                     

 ...... DATE ....... GROWTH STAGE    BIOMASS   LEAF       CROP N      STRESS
 YEARDOY DOM MON DAP ............... kg/ha  AREA NUMBER kg/ha    %   H2O     N
 2020101  10 Apr 315 1 1stBranch      8145 0.199  164.9    0 -99.0  0.19  0.00
 2020152  31 May 366 * Harvest        5621 0.487  185.0    0 -99.0  0.00  0.00
  

*MAIN GROWTH AND DEVELOPMENT VARIABLES

@     VARIABLE                           SIMULATED   MEASURED
      --------                           ---------   --------
      Germination  (dap)                      9        -99
      Emergence    (dap)                      9        -99
      1stBranch    (dap)                    315         87
      Harvest      (dap)                   5621      19619
      AboveGround (kg dm/ha)               9306       8760
      Roots+seed residue (kg dm/ha)         516        -99
      Senesced (kg dm/ha)                  1831        -99
      Product (kg dm/ha)                   5621      19619
      AboveGroundVegetative (kg dm/ha)     9306       8760
      HarvestIndex (ratio)                 0.37       0.69
      Reserves (kg dm/ha)                   281        -99
      Product unit wt (g dm)                -99        -99
      Product number (/m2)                  -99        -99
      Product number (/shoot)             -99.0      -99.0
      Maximum leaf area index               3.7        5.0
      Final leaf number (one axis)        185.0      -99.0
      Assimilated N (kg/ha)               -99.0      -99.0
      AboveGround N (kg/ha)               -99.0      -99.0
      Root N (kg/ha)                      -99.0      -99.0
      Senesced N (kg/ha)                    0.0      -99.0
      Product N (kg/ha)                   -99.0      -99.0
      AboveGroundVegetative N (kg/ha)       0.0      -99.0
      N HarvestIndex (ratio)             -99.00     -99.00
      Product N (% dm)                    -99.0      -99.0
      AboveGroundVegetative N (% dm)      -99.0      -99.0

*ENVIRONMENTAL AND STRESS FACTORS

|-------Branching tier-------|-------------Environment--------------|----------------Stress-----------------|
                              |--------Average-------|---Cumulative--|         (0=Min, 1=Max Stress)         |
                         Time  Temp  Temp Solar Photop         Evapo |----Water---|--Nitrogen--|--Phosphorus-|
                         Span   Max   Min   Rad  [day]   Rain  Trans  Photo         Photo         Photo
                         days     C     C MJ/m2     hr     mm     mm  synth Growth  synth Growth  synth Growth
--------------------------------------------------------------------------------------------------------------
 Germinate  - 1stBranch   306  29.2  21.3  16.6  11.94 2122.1 3832.3  0.192  0.260  0.000  0.000 -99.00 -99.00
 1stBranch  - 2ndBranch    52  29.6  23.2  18.2  12.29  276.2  462.9  0.000  0.099  0.000  0.000 -99.00 -99.00
 16thBranch - Harvest       0 -99.0 -99.0 -99.0 -99.00    0.0    0.0  0.000  0.000  0.000  0.000 -99.00 -99.00
  
 1stBranch  - Harvest     358  29.3  21.6  16.8  11.99 2398.3 1136.3  0.165  0.237  0.000  0.000 -99.00 -99.00
--------------------------------------------------------------------------------------------------------------


*RESOURCE PRODUCTIVITY

 Growing season length: 358 days 

 Precipitation during growth season       2398.3 mm[rain]
   Dry Matter Productivity                  0.39 kg[DM]/m3[rain]          =    3.9 kg[DM]/ha per mm[rain]
   Yield Productivity                       0.23 kg[Sroot yield]/m3[rain] =    2.3 kg[yield]/ha per mm[rain]

 Evapotranspiration during growth season  1136.3 mm[ET]
   Dry Matter Productivity                  0.82 kg[DM]/m3[ET]            =    8.2 kg[DM]/ha per mm[ET]
   Yield Productivity                       0.49 kg[Sroot yield]/m3[ET]   =    4.9 kg[yield]/ha per mm[ET]

 Transpiration during growth season        547.4 mm[EP]
   Dry Matter Productivity                  1.70 kg[DM]/m3[EP]            =   17.0 kg[DM]/ha per mm[EP]
   Yield Productivity                       1.03 kg[Sroot yield]/m3[EP]   =   10.3 kg[yield]/ha per mm[EP]

--------------------------------------------------------------------------------------------------------------

          CASSAVA YIELD :     5621 kg/ha    [Dry weight] 

**************************************************************************************************************
  

*DSSAT Cropping System Model Ver. 4.8.0.019 -develop  APR 08, 2023 12:34:38

*RUN   5        : IITA-TMS-IBA000070        CSYCA048 UYIB1701    1
 MODEL          : CSYCA048 - Cassava
 EXPERIMENT     : UYIB1701 CS UYT_GXE
 DATA PATH      :
 TREATMENT  1   : IITA-TMS-IBA000070        CSYCA048


 CROP           : Cassava          CULTIVAR : IITA-TMS-IBA0000 ECOTYPE :990017
 STARTING DATE  : SEP  7 2017
 PLANTING DATE  : SEP  8 2017      PLANTS/m2 :     1.0    ROW SPACING : 100.cm
 HARVEST DATE   : SEP  8 2018
 WEATHER        : UYIB   2017
 SOIL           : NG04261714     TEXTURE : SL    -    ISRIC soilgrids + HC27
 SOIL INITIAL C : DEPTH:200cm EXTR. H2O:171.4mm  NO3:  0.0kg/ha  NH4:  0.0kg/ha
 WATER BALANCE  : RAINFED
 IRRIGATION     : NOT IRRIGATED
 NITROGEN BAL.  : NOT SIMULATED ; NO N-STRESS
 N-FERTILIZER   :
 RESIDUE/MANURE :
 ENVIRONM. OPT. : DAYL=    0.00  SRAD=    0.00  TMAX=    0.00  TMIN=    0.00
                  RAIN=    0.00  CO2 =    0.00  DEW =    0.00  WIND=    0.00
 SIMULATION OPT : WATER   :Y  NITROGEN:N  N-FIX:N  PHOSPH :N  PESTS  :N
                  PHOTO   :R  ET      :R  INFIL:S  HYDROL :R  SOM    :G
                  CO2 407ppm  NSWIT   :1  EVAP :S  SOIL   :2  STEMP  :D
 MANAGEMENT OPT : PLANTING:R  IRRIG   :N  FERT :N  RESIDUE:N  HARVEST:R
                  WEATHER :M  TILLAGE :Y

*SUMMARY OF SOIL AND GENETIC INPUT PARAMETERS

   SOIL LOWER UPPER   SAT  EXTR  INIT   ROOT   BULK     pH    NO3    NH4    ORG
  DEPTH LIMIT LIMIT    SW    SW    SW   DIST   DENS                          C
   cm   cm3/cm3    cm3/cm3    cm3/cm3         g/cm3         ugN/g  ugN/g     %
-------------------------------------------------------------------------------
  0-  5 0.106 0.187 0.384 0.081 0.187   1.00   1.35   5.34   0.00   0.00   1.23
  5- 15 0.116 0.200 0.385 0.084 0.200   0.85   1.37   5.41   0.00   0.00   1.04
 15- 30 0.131 0.218 0.387 0.087 0.218   0.70   1.40   5.51   0.00   0.00   0.80
 30- 45 0.146 0.235 0.389 0.089 0.235   0.50   1.45   5.62   0.00   0.00   0.51
 45- 60 0.146 0.235 0.389 0.089 0.235   0.50   1.45   5.62   0.00   0.00   0.51
 60- 80 0.144 0.232 0.388 0.088 0.232   0.00   1.51   5.75   0.00   0.00   0.30
 80-100 0.144 0.232 0.388 0.088 0.232   0.00   1.51   5.75   0.00   0.00   0.30
100-150 0.134 0.218 0.386 0.084 0.218   0.00   1.57   5.94   0.00   0.00   0.19
150-200 0.134 0.218 0.386 0.084 0.218   0.00   1.57   5.94   0.00   0.00   0.19

TOT-200  27.2  44.3  77.4  17.1  44.3  <--cm   -  kg/ha-->    0.0    0.0      0
SOIL ALBEDO    : 0.10      EVAPORATION LIMIT : 6.00         MIN. FACTOR  : 1.00
RUNOFF CURVE # :75.00      DRAINAGE RATE     : 0.50         FERT. FACTOR : 1.00

 Cassava          CULTIVAR: UC0020-IITA-TMS-IBA0000   ECOTYPE: 990017
  B01ND B12ND B23ND B34ND BR1FX BR2FX BR3FX BR4FX
 1098. 1369.  998.  101.  2.50  2.00  2.00  1.50
  LAXS  SLAS LLIFA LPEFR LNSLP NODWT NODLT
 920.0  226.1800.0   0.3  1.38 10.56  3.49


*SIMULATED CROP AND SOIL STATUS AT MAIN DEVELOPMENT STAGES
  
 RUN NO.      5   UYT_GXE                                                     

 ...... DATE ....... GROWTH STAGE    BIOMASS   LEAF       CROP N      STRESS
 YEARDOY DOM MON DAP ............... kg/ha  AREA NUMBER kg/ha    %   H2O     N
 2018234  22 Aug 348 1 1stBranch      9655 1.136  169.1    0 -99.0  0.23  0.00
 2018251   8 Sep 365 * Harvest        4918 1.222  176.0    0 -99.0  0.00  0.00
  

*MAIN GROWTH AND DEVELOPMENT VARIABLES

@     VARIABLE                           SIMULATED   MEASURED
      --------                           ---------   --------
      Germination  (dap)                      9        -99
      Emergence    (dap)                      9        -99
      1stBranch    (dap)                    348         86
      Harvest      (dap)                   4918      15661
      AboveGround (kg dm/ha)              10080       6194
      Roots+seed residue (kg dm/ha)         566        -99
      Senesced (kg dm/ha)                  1816        -99
      Product (kg dm/ha)                   4918      15661
      AboveGroundVegetative (kg dm/ha)    10080       6194
      HarvestIndex (ratio)                 0.32       0.72
      Reserves (kg dm/ha)                   243        -99
      Product unit wt (g dm)                -99        -99
      Product number (/m2)                  -99        -99
      Product number (/shoot)             -99.0      -99.0
      Maximum leaf area index               3.7        5.0
      Final leaf number (one axis)        176.0      -99.0
      Assimilated N (kg/ha)               -99.0      -99.0
      AboveGround N (kg/ha)               -99.0      -99.0
      Root N (kg/ha)                      -99.0      -99.0
      Senesced N (kg/ha)                    0.0      -99.0
      Product N (kg/ha)                   -99.0      -99.0
      AboveGroundVegetative N (kg/ha)       0.0      -99.0
      N HarvestIndex (ratio)             -99.00     -99.00
      Product N (% dm)                    -99.0      -99.0
      AboveGroundVegetative N (% dm)      -99.0      -99.0

*ENVIRONMENTAL AND STRESS FACTORS

|-------Branching tier-------|-------------Environment--------------|----------------Stress-----------------|
                              |--------Average-------|---Cumulative--|         (0=Min, 1=Max Stress)         |
                         Time  Temp  Temp Solar Photop         Evapo |----Water---|--Nitrogen--|--Phosphorus-|
                         Span   Max   Min   Rad  [day]   Rain  Trans  Photo         Photo         Photo
                         days     C     C MJ/m2     hr     mm     mm  synth Growth  synth Growth  synth Growth
--------------------------------------------------------------------------------------------------------------
 Germinate  - 1stBranch   339  29.3  21.8  16.7  11.99 1340.8 4742.7  0.227  0.327  0.000  0.000 -99.00 -99.00
 1stBranch  - 2ndBranch    18  27.3  22.0  13.6  12.15  325.6  517.0  0.000  0.000  0.000  0.000 -99.00 -99.00
 16thBranch - Harvest       0 -99.0 -99.0 -99.0 -99.00    0.0    0.0  0.000  0.000  0.000  0.000 -99.00 -99.00
  
 1stBranch  - Harvest     357  29.2  21.9  16.5  12.00 1666.4  964.5  0.216  0.310  0.000  0.000 -99.00 -99.00
--------------------------------------------------------------------------------------------------------------


*RESOURCE PRODUCTIVITY

 Growing season length: 357 days 

 Precipitation during growth season       1666.4 mm[rain]
   Dry Matter Productivity                  0.60 kg[DM]/m3[rain]          =    6.0 kg[DM]/ha per mm[rain]
   Yield Productivity                       0.30 kg[Sroot yield]/m3[rain] =    3.0 kg[yield]/ha per mm[rain]

 Evapotranspiration during growth season   964.5 mm[ET]
   Dry Matter Productivity                  1.05 kg[DM]/m3[ET]            =   10.5 kg[DM]/ha per mm[ET]
   Yield Productivity                       0.51 kg[Sroot yield]/m3[ET]   =    5.1 kg[yield]/ha per mm[ET]

 Transpiration during growth season        402.8 mm[EP]
   Dry Matter Productivity                  2.50 kg[DM]/m3[EP]            =   25.0 kg[DM]/ha per mm[EP]
   Yield Productivity                       1.22 kg[Sroot yield]/m3[EP]   =   12.2 kg[yield]/ha per mm[EP]

--------------------------------------------------------------------------------------------------------------

          CASSAVA YIELD :     4918 kg/ha    [Dry weight] 

**************************************************************************************************************
  

*DSSAT Cropping System Model Ver. 4.8.0.019 -develop  APR 08, 2023 12:34:38

*RUN   6        : IITA-TMS-IBA000070        CSYCA048 UYIB1801    1
 MODEL          : CSYCA048 - Cassava
 EXPERIMENT     : UYIB1801 CS UYT_GXE
 DATA PATH      :
 TREATMENT  1   : IITA-TMS-IBA000070        CSYCA048


 CROP           : Cassava          CULTIVAR : IITA-TMS-IBA0000 ECOTYPE :990017
 STARTING DATE  : SEP  7 2018
 PLANTING DATE  : SEP  8 2018      PLANTS/m2 :     1.0    ROW SPACING : 100.cm
 HARVEST DATE   : SEP  8 2019
 WEATHER        : UYIB   2018
 SOIL           : NG04261714     TEXTURE : SL    -    ISRIC soilgrids + HC27
 SOIL INITIAL C : DEPTH:200cm EXTR. H2O:171.4mm  NO3:  0.0kg/ha  NH4:  0.0kg/ha
 WATER BALANCE  : RAINFED
 IRRIGATION     : NOT IRRIGATED
 NITROGEN BAL.  : NOT SIMULATED ; NO N-STRESS
 N-FERTILIZER   :
 RESIDUE/MANURE :
 ENVIRONM. OPT. : DAYL=    0.00  SRAD=    0.00  TMAX=    0.00  TMIN=    0.00
                  RAIN=    0.00  CO2 =    0.00  DEW =    0.00  WIND=    0.00
 SIMULATION OPT : WATER   :Y  NITROGEN:N  N-FIX:N  PHOSPH :N  PESTS  :N
                  PHOTO   :R  ET      :R  INFIL:S  HYDROL :R  SOM    :G
                  CO2 409ppm  NSWIT   :1  EVAP :S  SOIL   :2  STEMP  :D
 MANAGEMENT OPT : PLANTING:R  IRRIG   :N  FERT :N  RESIDUE:N  HARVEST:R
                  WEATHER :M  TILLAGE :Y

*SUMMARY OF SOIL AND GENETIC INPUT PARAMETERS

   SOIL LOWER UPPER   SAT  EXTR  INIT   ROOT   BULK     pH    NO3    NH4    ORG
  DEPTH LIMIT LIMIT    SW    SW    SW   DIST   DENS                          C
   cm   cm3/cm3    cm3/cm3    cm3/cm3         g/cm3         ugN/g  ugN/g     %
-------------------------------------------------------------------------------
  0-  5 0.106 0.187 0.384 0.081 0.187   1.00   1.35   5.34   0.00   0.00   1.23
  5- 15 0.116 0.200 0.385 0.084 0.200   0.85   1.37   5.41   0.00   0.00   1.04
 15- 30 0.131 0.218 0.387 0.087 0.218   0.70   1.40   5.51   0.00   0.00   0.80
 30- 45 0.146 0.235 0.389 0.089 0.235   0.50   1.45   5.62   0.00   0.00   0.51
 45- 60 0.146 0.235 0.389 0.089 0.235   0.50   1.45   5.62   0.00   0.00   0.51
 60- 80 0.144 0.232 0.388 0.088 0.232   0.00   1.51   5.75   0.00   0.00   0.30
 80-100 0.144 0.232 0.388 0.088 0.232   0.00   1.51   5.75   0.00   0.00   0.30
100-150 0.134 0.218 0.386 0.084 0.218   0.00   1.57   5.94   0.00   0.00   0.19
150-200 0.134 0.218 0.386 0.084 0.218   0.00   1.57   5.94   0.00   0.00   0.19

TOT-200  27.2  44.3  77.4  17.1  44.3  <--cm   -  kg/ha-->    0.0    0.0      0
SOIL ALBEDO    : 0.10      EVAPORATION LIMIT : 6.00         MIN. FACTOR  : 1.00
RUNOFF CURVE # :75.00      DRAINAGE RATE     : 0.50         FERT. FACTOR : 1.00

 Cassava          CULTIVAR: UC0020-IITA-TMS-IBA0000   ECOTYPE: 990017
  B01ND B12ND B23ND B34ND BR1FX BR2FX BR3FX BR4FX
 1098. 1369.  998.  101.  2.50  2.00  2.00  1.50
  LAXS  SLAS LLIFA LPEFR LNSLP NODWT NODLT
 920.0  226.1800.0   0.3  1.38 10.56  3.49


*SIMULATED CROP AND SOIL STATUS AT MAIN DEVELOPMENT STAGES
  
 RUN NO.      6   UYT_GXE                                                     

 ...... DATE ....... GROWTH STAGE    BIOMASS   LEAF       CROP N      STRESS
 YEARDOY DOM MON DAP ............... kg/ha  AREA NUMBER kg/ha    %   H2O     N
 2019223  11 Aug 337 1 1stBranch      9069 1.016  177.7    0 -99.0  0.21  0.00
 2019251   8 Sep 365 * Harvest        7861 1.147  188.5    0 -99.0  0.00  0.00
  

*MAIN GROWTH AND DEVELOPMENT VARIABLES

@     VARIABLE                           SIMULATED   MEASURED
      --------                           ---------   --------
      Germination  (dap)                      9        -99
      Emergence    (dap)                      9        -99
      1stBranch    (dap)                    337         35
      Harvest      (dap)                   7861      19598
      AboveGround (kg dm/ha)               9851       6726
      Roots+seed residue (kg dm/ha)         557        -99
      Senesced (kg dm/ha)                  1949        -99
      Product (kg dm/ha)                   7861      19598
      AboveGroundVegetative (kg dm/ha)     9851       6726
      HarvestIndex (ratio)                 0.44       0.74
      Reserves (kg dm/ha)                   391        -99
      Product unit wt (g dm)                -99        -99
      Product number (/m2)                  -99        -99
      Product number (/shoot)             -99.0      -99.0
      Maximum leaf area index               3.8        5.0
      Final leaf number (one axis)        188.5      -99.0
      Assimilated N (kg/ha)               -99.0      -99.0
      AboveGround N (kg/ha)               -99.0      -99.0
      Root N (kg/ha)                      -99.0      -99.0
      Senesced N (kg/ha)                    0.0      -99.0
      Product N (kg/ha)                   -99.0      -99.0
      AboveGroundVegetative N (kg/ha)       0.0      -99.0
      N HarvestIndex (ratio)             -99.00     -99.00
      Product N (% dm)                    -99.0      -99.0
      AboveGroundVegetative N (% dm)      -99.0      -99.0

*ENVIRONMENTAL AND STRESS FACTORS

|-------Branching tier-------|-------------Environment--------------|----------------Stress-----------------|
                              |--------Average-------|---Cumulative--|         (0=Min, 1=Max Stress)         |
                         Time  Temp  Temp Solar Photop         Evapo |----Water---|--Nitrogen--|--Phosphorus-|
                         Span   Max   Min   Rad  [day]   Rain  Trans  Photo         Photo         Photo
                         days     C     C MJ/m2     hr     mm     mm  synth Growth  synth Growth  synth Growth
--------------------------------------------------------------------------------------------------------------
 Germinate  - 1stBranch   328  29.5  22.2  17.2  11.98 1676.3 5766.8  0.211  0.291  0.000  0.000 -99.00 -99.00
 1stBranch  - 2ndBranch    29  28.2  22.1  14.3  12.19  230.0  607.2  0.000  0.000  0.000  0.000 -99.00 -99.00
 16thBranch - Harvest       0 -99.0 -99.0 -99.0 -99.00    0.0    0.0  0.000  0.000  0.000  0.000 -99.00 -99.00
  
 1stBranch  - Harvest     357  29.4  22.2  17.0  12.00 1906.3 1114.3  0.194  0.268  0.000  0.000 -99.00 -99.00
--------------------------------------------------------------------------------------------------------------


*RESOURCE PRODUCTIVITY

 Growing season length: 357 days 

 Precipitation during growth season       1906.3 mm[rain]
   Dry Matter Productivity                  0.52 kg[DM]/m3[rain]          =    5.2 kg[DM]/ha per mm[rain]
   Yield Productivity                       0.41 kg[Sroot yield]/m3[rain] =    4.1 kg[yield]/ha per mm[rain]

 Evapotranspiration during growth season  1114.3 mm[ET]
   Dry Matter Productivity                  0.88 kg[DM]/m3[ET]            =    8.8 kg[DM]/ha per mm[ET]
   Yield Productivity                       0.71 kg[Sroot yield]/m3[ET]   =    7.1 kg[yield]/ha per mm[ET]

 Transpiration during growth season        526.8 mm[EP]
   Dry Matter Productivity                  1.87 kg[DM]/m3[EP]            =   18.7 kg[DM]/ha per mm[EP]
   Yield Productivity                       1.49 kg[Sroot yield]/m3[EP]   =   14.9 kg[yield]/ha per mm[EP]

--------------------------------------------------------------------------------------------------------------

          CASSAVA YIELD :     7861 kg/ha    [Dry weight] 

**************************************************************************************************************
  

*DSSAT Cropping System Model Ver. 4.8.0.019 -develop  APR 08, 2023 12:34:39

*RUN   7        : IITA-TMS-IBA000070        CSYCA048 UYIB1901    1
 MODEL          : CSYCA048 - Cassava
 EXPERIMENT     : UYIB1901 CS UYT_GXE
 DATA PATH      :
 TREATMENT  1   : IITA-TMS-IBA000070        CSYCA048


 CROP           : Cassava          CULTIVAR : IITA-TMS-IBA0000 ECOTYPE :990017
 STARTING DATE  : MAY 14 2019
 PLANTING DATE  : MAY 16 2019      PLANTS/m2 :     1.0    ROW SPACING : 100.cm
 HARVEST DATE   : APR 19 2020
 WEATHER        : UYIB   2019
 SOIL           : NG04261714     TEXTURE : SL    -    ISRIC soilgrids + HC27
 SOIL INITIAL C : DEPTH:200cm EXTR. H2O:171.4mm  NO3:  0.0kg/ha  NH4:  0.0kg/ha
 WATER BALANCE  : RAINFED
 IRRIGATION     : NOT IRRIGATED
 NITROGEN BAL.  : NOT SIMULATED ; NO N-STRESS
 N-FERTILIZER   :
 RESIDUE/MANURE :
 ENVIRONM. OPT. : DAYL=    0.00  SRAD=    0.00  TMAX=    0.00  TMIN=    0.00
                  RAIN=    0.00  CO2 =    0.00  DEW =    0.00  WIND=    0.00
 SIMULATION OPT : WATER   :Y  NITROGEN:N  N-FIX:N  PHOSPH :N  PESTS  :N
                  PHOTO   :R  ET      :R  INFIL:S  HYDROL :R  SOM    :G
                  CO2 411ppm  NSWIT   :1  EVAP :S  SOIL   :2  STEMP  :D
 MANAGEMENT OPT : PLANTING:R  IRRIG   :N  FERT :N  RESIDUE:N  HARVEST:R
                  WEATHER :M  TILLAGE :Y

*SUMMARY OF SOIL AND GENETIC INPUT PARAMETERS

   SOIL LOWER UPPER   SAT  EXTR  INIT   ROOT   BULK     pH    NO3    NH4    ORG
  DEPTH LIMIT LIMIT    SW    SW    SW   DIST   DENS                          C
   cm   cm3/cm3    cm3/cm3    cm3/cm3         g/cm3         ugN/g  ugN/g     %
-------------------------------------------------------------------------------
  0-  5 0.106 0.187 0.384 0.081 0.187   1.00   1.35   5.34   0.00   0.00   1.23
  5- 15 0.116 0.200 0.385 0.084 0.200   0.85   1.37   5.41   0.00   0.00   1.04
 15- 30 0.131 0.218 0.387 0.087 0.218   0.70   1.40   5.51   0.00   0.00   0.80
 30- 45 0.146 0.235 0.389 0.089 0.235   0.50   1.45   5.62   0.00   0.00   0.51
 45- 60 0.146 0.235 0.389 0.089 0.235   0.50   1.45   5.62   0.00   0.00   0.51
 60- 80 0.144 0.232 0.388 0.088 0.232   0.00   1.51   5.75   0.00   0.00   0.30
 80-100 0.144 0.232 0.388 0.088 0.232   0.00   1.51   5.75   0.00   0.00   0.30
100-150 0.134 0.218 0.386 0.084 0.218   0.00   1.57   5.94   0.00   0.00   0.19
150-200 0.134 0.218 0.386 0.084 0.218   0.00   1.57   5.94   0.00   0.00   0.19

TOT-200  27.2  44.3  77.4  17.1  44.3  <--cm   -  kg/ha-->    0.0    0.0      0
SOIL ALBEDO    : 0.10      EVAPORATION LIMIT : 6.00         MIN. FACTOR  : 1.00
RUNOFF CURVE # :75.00      DRAINAGE RATE     : 0.50         FERT. FACTOR : 1.00

 Cassava          CULTIVAR: UC0020-IITA-TMS-IBA0000   ECOTYPE: 990017
  B01ND B12ND B23ND B34ND BR1FX BR2FX BR3FX BR4FX
 1098. 1369.  998.  101.  2.50  2.00  2.00  1.50
  LAXS  SLAS LLIFA LPEFR LNSLP NODWT NODLT
 920.0  226.1800.0   0.3  1.38 10.56  3.49


*SIMULATED CROP AND SOIL STATUS AT MAIN DEVELOPMENT STAGES
  
 RUN NO.      7   UYT_GXE                                                     

 ...... DATE ....... GROWTH STAGE    BIOMASS   LEAF       CROP N      STRESS
 YEARDOY DOM MON DAP ............... kg/ha  AREA NUMBER kg/ha    %   H2O     N
 2020110  19 Apr 339 * Harvest        6325 0.205  170.6    0 -99.0  0.00  0.00
  

*MAIN GROWTH AND DEVELOPMENT VARIABLES

@     VARIABLE                           SIMULATED   MEASURED
      --------                           ---------   --------
      Germination  (dap)                      8        -99
      Emergence    (dap)                      8        -99
      Harvest      (dap)                   6325      10594
      AboveGround (kg dm/ha)               9055       6203
      Roots+seed residue (kg dm/ha)         521        -99
      Senesced (kg dm/ha)                  1907        -99
      Product (kg dm/ha)                   6325      10594
      AboveGroundVegetative (kg dm/ha)     9055       6203
      HarvestIndex (ratio)                 0.40       0.63
      Reserves (kg dm/ha)                   316        -99
      Product unit wt (g dm)                -99        -99
      Product number (/m2)                  -99        -99
      Product number (/shoot)             -99.0      -99.0
      Maximum leaf area index               4.2        5.0
      Final leaf number (one axis)        170.6      -99.0
      Assimilated N (kg/ha)               -99.0      -99.0
      AboveGround N (kg/ha)               -99.0      -99.0
      Root N (kg/ha)                      -99.0      -99.0
      Senesced N (kg/ha)                    0.0      -99.0
      Product N (kg/ha)                   -99.0      -99.0
      AboveGroundVegetative N (kg/ha)       0.0      -99.0
      N HarvestIndex (ratio)             -99.00     -99.00
      Product N (% dm)                    -99.0      -99.0
      AboveGroundVegetative N (% dm)      -99.0      -99.0

*ENVIRONMENTAL AND STRESS FACTORS

|-------Branching tier-------|-------------Environment--------------|----------------Stress-----------------|
                              |--------Average-------|---Cumulative--|         (0=Min, 1=Max Stress)         |
                         Time  Temp  Temp Solar Photop         Evapo |----Water---|--Nitrogen--|--Phosphorus-|
                         Span   Max   Min   Rad  [day]   Rain  Trans  Photo         Photo         Photo
                         days     C     C MJ/m2     hr     mm     mm  synth Growth  synth Growth  synth Growth
--------------------------------------------------------------------------------------------------------------
 Germinate  - 1stBranch   332  29.5  21.7  16.7  11.97 1957.3 6672.6  0.266  0.312  0.000  0.000 -99.00 -99.00
 16thBranch - Harvest       0 -99.0 -99.0 -99.0 -99.00    0.0    0.0  0.000  0.000  0.000  0.000 -99.00 -99.00
  
 1stBranch  - Harvest     332  29.5  21.7  16.7  11.97 1957.3  905.7  0.266  0.312  0.000  0.000 -99.00 -99.00
--------------------------------------------------------------------------------------------------------------


*RESOURCE PRODUCTIVITY

 Growing season length: 332 days 

 Precipitation during growth season       1957.3 mm[rain]
   Dry Matter Productivity                  0.46 kg[DM]/m3[rain]          =    4.6 kg[DM]/ha per mm[rain]
   Yield Productivity                       0.32 kg[Sroot yield]/m3[rain] =    3.2 kg[yield]/ha per mm[rain]

 Evapotranspiration during growth season   905.7 mm[ET]
   Dry Matter Productivity                  1.00 kg[DM]/m3[ET]            =   10.0 kg[DM]/ha per mm[ET]
   Yield Productivity                       0.70 kg[Sroot yield]/m3[ET]   =    7.0 kg[yield]/ha per mm[ET]

 Transpiration during growth season        454.8 mm[EP]
   Dry Matter Productivity                  1.99 kg[DM]/m3[EP]            =   19.9 kg[DM]/ha per mm[EP]
   Yield Productivity                       1.39 kg[Sroot yield]/m3[EP]   =   13.9 kg[yield]/ha per mm[EP]

--------------------------------------------------------------------------------------------------------------

          CASSAVA YIELD :     6325 kg/ha    [Dry weight] 

**************************************************************************************************************
  

*DSSAT Cropping System Model Ver. 4.8.0.019 -develop  APR 08, 2023 12:34:39

*RUN   8        : IITA-TMS-IBA000070        CSYCA048 UYIB2001    1
 MODEL          : CSYCA048 - Cassava
 EXPERIMENT     : UYIB2001 CS UYT_GXE
 DATA PATH      :
 TREATMENT  1   : IITA-TMS-IBA000070        CSYCA048


 CROP           : Cassava          CULTIVAR : IITA-TMS-IBA0000 ECOTYPE :990017
 STARTING DATE  : MAY 14 2020
 PLANTING DATE  : JUN 17 2020      PLANTS/m2 :     1.0    ROW SPACING : 100.cm
 HARVEST DATE   : MAY 14 2021
 WEATHER        : UYIB   2020
 SOIL           : NG04261714     TEXTURE : SL    -    ISRIC soilgrids + HC27
 SOIL INITIAL C : DEPTH:200cm EXTR. H2O:171.4mm  NO3:  0.0kg/ha  NH4:  0.0kg/ha
 WATER BALANCE  : AUTOMATIC IRRIGATION - REFILL PROFILE
 IRRIGATION     : AUTOMATIC [SOIL DEPTH: 0.30 m 50.%]
 NITROGEN BAL.  : NOT SIMULATED ; NO N-STRESS
 N-FERTILIZER   :
 RESIDUE/MANURE :
 ENVIRONM. OPT. : DAYL=    0.00  SRAD=    0.00  TMAX=    0.00  TMIN=    0.00
                  RAIN=    0.00  CO2 =    0.00  DEW =    0.00  WIND=    0.00
 SIMULATION OPT : WATER   :Y  NITROGEN:N  N-FIX:N  PHOSPH :N  PESTS  :N
                  PHOTO   :R  ET      :R  INFIL:S  HYDROL :R  SOM    :G
                  CO2 413ppm  NSWIT   :1  EVAP :S  SOIL   :2  STEMP  :D
 MANAGEMENT OPT : PLANTING:R  IRRIG   :A  FERT :N  RESIDUE:N  HARVEST:R
                  WEATHER :M  TILLAGE :Y

*SUMMARY OF SOIL AND GENETIC INPUT PARAMETERS

   SOIL LOWER UPPER   SAT  EXTR  INIT   ROOT   BULK     pH    NO3    NH4    ORG
  DEPTH LIMIT LIMIT    SW    SW    SW   DIST   DENS                          C
   cm   cm3/cm3    cm3/cm3    cm3/cm3         g/cm3         ugN/g  ugN/g     %
-------------------------------------------------------------------------------
  0-  5 0.106 0.187 0.384 0.081 0.187   1.00   1.35   5.34   0.00   0.00   1.23
  5- 15 0.116 0.200 0.385 0.084 0.200   0.85   1.37   5.41   0.00   0.00   1.04
 15- 30 0.131 0.218 0.387 0.087 0.218   0.70   1.40   5.51   0.00   0.00   0.80
 30- 45 0.146 0.235 0.389 0.089 0.235   0.50   1.45   5.62   0.00   0.00   0.51
 45- 60 0.146 0.235 0.389 0.089 0.235   0.50   1.45   5.62   0.00   0.00   0.51
 60- 80 0.144 0.232 0.388 0.088 0.232   0.00   1.51   5.75   0.00   0.00   0.30
 80-100 0.144 0.232 0.388 0.088 0.232   0.00   1.51   5.75   0.00   0.00   0.30
100-150 0.134 0.218 0.386 0.084 0.218   0.00   1.57   5.94   0.00   0.00   0.19
150-200 0.134 0.218 0.386 0.084 0.218   0.00   1.57   5.94   0.00   0.00   0.19

TOT-200  27.2  44.3  77.4  17.1  44.3  <--cm   -  kg/ha-->    0.0    0.0      0
SOIL ALBEDO    : 0.10      EVAPORATION LIMIT : 6.00         MIN. FACTOR  : 1.00
RUNOFF CURVE # :75.00      DRAINAGE RATE     : 0.50         FERT. FACTOR : 1.00

 Cassava          CULTIVAR: UC0020-IITA-TMS-IBA0000   ECOTYPE: 990017
  B01ND B12ND B23ND B34ND BR1FX BR2FX BR3FX BR4FX
 1098. 1369.  998.  101.  2.50  2.00  2.00  1.50
  LAXS  SLAS LLIFA LPEFR LNSLP NODWT NODLT
 920.0  226.1800.0   0.3  1.38 10.56  3.49


*SIMULATED CROP AND SOIL STATUS AT MAIN DEVELOPMENT STAGES
  
 RUN NO.      8   UYT_GXE                                                     

 ...... DATE ....... GROWTH STAGE    BIOMASS   LEAF       CROP N      STRESS
 YEARDOY DOM MON DAP ............... kg/ha  AREA NUMBER kg/ha    %   H2O     N
 2021083  24 Mar 280 1 1stBranch      7830 0.631  169.5    0 -99.0  0.03  0.00
 2021134  14 May 331 * Harvest        9808 0.708  190.5    0 -99.0  0.00  0.00
  

*MAIN GROWTH AND DEVELOPMENT VARIABLES

@     VARIABLE                           SIMULATED   MEASURED
      --------                           ---------   --------
      Germination  (dap)                      9        -99
      Emergence    (dap)                      9        -99
      1stBranch    (dap)                    280         53
      Harvest      (dap)                   9808      16520
      AboveGround (kg dm/ha)               9177      12906
      Roots+seed residue (kg dm/ha)         547        -99
      Senesced (kg dm/ha)                  1731        -99
      Product (kg dm/ha)                   9808      16520
      AboveGroundVegetative (kg dm/ha)     9177      12906
      HarvestIndex (ratio)                 0.51       0.56
      Reserves (kg dm/ha)                   489        -99
      Product unit wt (g dm)                -99        -99
      Product number (/m2)                  -99        -99
      Product number (/shoot)             -99.0      -99.0
      Maximum leaf area index               3.7        5.0
      Final leaf number (one axis)        190.5      -99.0
      Assimilated N (kg/ha)               -99.0      -99.0
      AboveGround N (kg/ha)               -99.0      -99.0
      Root N (kg/ha)                      -99.0      -99.0
      Senesced N (kg/ha)                    0.0      -99.0
      Product N (kg/ha)                   -99.0      -99.0
      AboveGroundVegetative N (kg/ha)       0.0      -99.0
      N HarvestIndex (ratio)             -99.00     -99.00
      Product N (% dm)                    -99.0      -99.0
      AboveGroundVegetative N (% dm)      -99.0      -99.0

*ENVIRONMENTAL AND STRESS FACTORS

|-------Branching tier-------|-------------Environment--------------|----------------Stress-----------------|
                              |--------Average-------|---Cumulative--|         (0=Min, 1=Max Stress)         |
                         Time  Temp  Temp Solar Photop         Evapo |----Water---|--Nitrogen--|--Phosphorus-|
                         Span   Max   Min   Rad  [day]   Rain  Trans  Photo         Photo         Photo
                         days     C     C MJ/m2     hr     mm     mm  synth Growth  synth Growth  synth Growth
--------------------------------------------------------------------------------------------------------------
 Germinate  - 1stBranch   271  29.6  21.7  16.3  11.89  993.4 7624.6  0.034  0.151  0.000  0.000 -99.00 -99.00
 1stBranch  - 2ndBranch    52  30.2  23.1  18.7  12.19  217.5  811.1  0.000  0.021  0.000  0.000 -99.00 -99.00
 16thBranch - Harvest       0 -99.0 -99.0 -99.0 -99.00    0.0    0.0  0.000  0.000  0.000  0.000 -99.00 -99.00
  
 1stBranch  - Harvest     323  29.7  21.9  16.7  11.94 1210.9 1155.9  0.029  0.130  0.000  0.000 -99.00 -99.00
--------------------------------------------------------------------------------------------------------------


*RESOURCE PRODUCTIVITY

 Growing season length: 323 days 

 Precipitation during growth season       1210.9 mm[rain]
   Dry Matter Productivity                  0.76 kg[DM]/m3[rain]          =    7.6 kg[DM]/ha per mm[rain]
   Yield Productivity                       0.81 kg[Sroot yield]/m3[rain] =    8.1 kg[yield]/ha per mm[rain]

 Evapotranspiration during growth season  1155.9 mm[ET]
   Dry Matter Productivity                  0.79 kg[DM]/m3[ET]            =    7.9 kg[DM]/ha per mm[ET]
   Yield Productivity                       0.85 kg[Sroot yield]/m3[ET]   =    8.5 kg[yield]/ha per mm[ET]

 Transpiration during growth season        605.3 mm[EP]
   Dry Matter Productivity                  1.52 kg[DM]/m3[EP]            =   15.2 kg[DM]/ha per mm[EP]
   Yield Productivity                       1.62 kg[Sroot yield]/m3[EP]   =   16.2 kg[yield]/ha per mm[EP]

 Irrigation during growing season          353.3 mm[irrig]
   Dry Matter Productivity                  2.60 kg[DM]/m3[irrig]         =   26.0 kg[DM]/ha per mm[irrig]
   Yield Productivity                       2.78 kg[Sroot yield]/m3[irrig]=   27.8 kg[yield]/ha per mm[irrig]

--------------------------------------------------------------------------------------------------------------

          CASSAVA YIELD :     9808 kg/ha    [Dry weight] 

**************************************************************************************************************
  

*DSSAT Cropping System Model Ver. 4.8.0.019 -develop  APR 08, 2023 12:34:39

*RUN   9        : IITA-TMS-IBA000070        CSYCA048 UYIK1701    1
 MODEL          : CSYCA048 - Cassava
 EXPERIMENT     : UYIK1701 CS UYT_GXE
 DATA PATH      :
 TREATMENT  1   : IITA-TMS-IBA000070        CSYCA048


 CROP           : Cassava          CULTIVAR : IITA-TMS-IBA0000 ECOTYPE :990017
 STARTING DATE  : AUG 23 2017
 PLANTING DATE  : AUG 24 2017      PLANTS/m2 :     1.0    ROW SPACING : 100.cm
 HARVEST DATE   : AUG 29 2018
 WEATHER        : UYIK   2017
 SOIL           : NG04304916     TEXTURE : SL    - SRIC soilgrids + HC27
 SOIL INITIAL C : DEPTH:200cm EXTR. H2O:237.5mm  NO3:  0.0kg/ha  NH4:  0.0kg/ha
 WATER BALANCE  : RAINFED
 IRRIGATION     : NOT IRRIGATED
 NITROGEN BAL.  : NOT SIMULATED ; NO N-STRESS
 N-FERTILIZER   :
 RESIDUE/MANURE :
 ENVIRONM. OPT. : DAYL=    0.00  SRAD=    0.00  TMAX=    0.00  TMIN=    0.00
                  RAIN=    0.00  CO2 =    0.00  DEW =    0.00  WIND=    0.00
 SIMULATION OPT : WATER   :Y  NITROGEN:N  N-FIX:N  PHOSPH :N  PESTS  :N
                  PHOTO   :R  ET      :R  INFIL:S  HYDROL :R  SOM    :G
                  CO2 407ppm  NSWIT   :1  EVAP :S  SOIL   :2  STEMP  :D
 MANAGEMENT OPT : PLANTING:R  IRRIG   :N  FERT :N  RESIDUE:N  HARVEST:R
                  WEATHER :M  TILLAGE :Y

*SUMMARY OF SOIL AND GENETIC INPUT PARAMETERS

   SOIL LOWER UPPER   SAT  EXTR  INIT   ROOT   BULK     pH    NO3    NH4    ORG
  DEPTH LIMIT LIMIT    SW    SW    SW   DIST   DENS                          C
   cm   cm3/cm3    cm3/cm3    cm3/cm3         g/cm3         ugN/g  ugN/g     %
-------------------------------------------------------------------------------
  0-  5 0.195 0.312 0.415 0.117 0.312   1.00   1.40   5.10   0.00   0.00   2.47
  5- 15 0.208 0.326 0.420 0.118 0.326   0.85   1.42   5.17   0.00   0.00   2.09
 15- 30 0.225 0.344 0.428 0.119 0.344   0.70   1.45   5.26   0.00   0.00   1.59
 30- 45 0.239 0.359 0.436 0.120 0.359   0.50   1.50   5.38   0.00   0.00   1.02
 45- 60 0.239 0.359 0.436 0.120 0.359   0.50   1.50   5.38   0.00   0.00   1.02
 60- 80 0.239 0.359 0.435 0.120 0.359   0.38   1.56   5.52   0.00   0.00   0.59
 80-100 0.239 0.359 0.435 0.120 0.359   0.38   1.56   5.52   0.00   0.00   0.59
100-150 0.228 0.346 0.428 0.118 0.346   0.05   1.62   5.70   0.00   0.00   0.33
150-200 0.228 0.346 0.428 0.118 0.346   0.05   1.62   5.70   0.00   0.00   0.33

TOT-200  46.0  69.7  86.0  23.8  69.7  <--cm   -  kg/ha-->    0.0    0.0      0
SOIL ALBEDO    : 0.10      EVAPORATION LIMIT : 6.00         MIN. FACTOR  : 1.00
RUNOFF CURVE # :75.00      DRAINAGE RATE     : 0.50         FERT. FACTOR : 1.00

 Cassava          CULTIVAR: UC0020-IITA-TMS-IBA0000   ECOTYPE: 990017
  B01ND B12ND B23ND B34ND BR1FX BR2FX BR3FX BR4FX
 1098. 1369.  998.  101.  2.50  2.00  2.00  1.50
  LAXS  SLAS LLIFA LPEFR LNSLP NODWT NODLT
 920.0  226.1800.0   0.3  1.38 10.56  3.49


*SIMULATED CROP AND SOIL STATUS AT MAIN DEVELOPMENT STAGES
  
 RUN NO.      9   UYT_GXE                                                     

 ...... DATE ....... GROWTH STAGE    BIOMASS   LEAF       CROP N      STRESS
 YEARDOY DOM MON DAP ............... kg/ha  AREA NUMBER kg/ha    %   H2O     N
 2018219   7 Aug 348 1 1stBranch      9431 0.693  173.9    0 -99.0  0.21  0.00
 2018241  29 Aug 370 * Harvest        3394 0.832  182.5    0 -99.0  0.00  0.00
  

*MAIN GROWTH AND DEVELOPMENT VARIABLES

@     VARIABLE                           SIMULATED   MEASURED
      --------                           ---------   --------
      Germination  (dap)                      9        -99
      Emergence    (dap)                      9        -99
      1stBranch    (dap)                    348         87
      Harvest      (dap)                   3394      13302
      AboveGround (kg dm/ha)               9882       7812
      Roots+seed residue (kg dm/ha)         538        -99
      Senesced (kg dm/ha)                  1769        -99
      Product (kg dm/ha)                   3394      13302
      AboveGroundVegetative (kg dm/ha)     9882       7812
      HarvestIndex (ratio)                 0.25       0.63
      Reserves (kg dm/ha)                   169        -99
      Product unit wt (g dm)                -99        -99
      Product number (/m2)                  -99        -99
      Product number (/shoot)             -99.0      -99.0
      Maximum leaf area index               3.5        5.0
      Final leaf number (one axis)        182.5      -99.0
      Assimilated N (kg/ha)               -99.0      -99.0
      AboveGround N (kg/ha)               -99.0      -99.0
      Root N (kg/ha)                      -99.0      -99.0
      Senesced N (kg/ha)                    0.0      -99.0
      Product N (kg/ha)                   -99.0      -99.0
      AboveGroundVegetative N (kg/ha)       0.0      -99.0
      N HarvestIndex (ratio)             -99.00     -99.00
      Product N (% dm)                    -99.0      -99.0
      AboveGroundVegetative N (% dm)      -99.0      -99.0

*ENVIRONMENTAL AND STRESS FACTORS

|-------Branching tier-------|-------------Environment--------------|----------------Stress-----------------|
                              |--------Average-------|---Cumulative--|         (0=Min, 1=Max Stress)         |
                         Time  Temp  Temp Solar Photop         Evapo |----Water---|--Nitrogen--|--Phosphorus-|
                         Span   Max   Min   Rad  [day]   Rain  Trans  Photo         Photo         Photo
                         days     C     C MJ/m2     hr     mm     mm  synth Growth  synth Growth  synth Growth
--------------------------------------------------------------------------------------------------------------
 Germinate  - 1stBranch   339  29.3  22.8  16.5  11.98 1417.8 8613.7  0.206  0.315  0.000  0.000 -99.00 -99.00
 1stBranch  - 2ndBranch    23  27.9  22.3  14.6  12.21  174.9  885.1  0.000  0.000  0.000  0.000 -99.00 -99.00
 16thBranch - Harvest       0 -99.0 -99.0 -99.0 -99.00    0.0    0.0  0.000  0.000  0.000  0.000 -99.00 -99.00
  
 1stBranch  - Harvest     362  29.2  22.7  16.4  12.00 1592.7 1063.2  0.193  0.295  0.000  0.000 -99.00 -99.00
--------------------------------------------------------------------------------------------------------------


*RESOURCE PRODUCTIVITY

 Growing season length: 362 days 

 Precipitation during growth season       1592.7 mm[rain]
   Dry Matter Productivity                  0.62 kg[DM]/m3[rain]          =    6.2 kg[DM]/ha per mm[rain]
   Yield Productivity                       0.21 kg[Sroot yield]/m3[rain] =    2.1 kg[yield]/ha per mm[rain]

 Evapotranspiration during growth season  1063.2 mm[ET]
   Dry Matter Productivity                  0.93 kg[DM]/m3[ET]            =    9.3 kg[DM]/ha per mm[ET]
   Yield Productivity                       0.32 kg[Sroot yield]/m3[ET]   =    3.2 kg[yield]/ha per mm[ET]

 Transpiration during growth season        397.9 mm[EP]
   Dry Matter Productivity                  2.48 kg[DM]/m3[EP]            =   24.8 kg[DM]/ha per mm[EP]
   Yield Productivity                       0.85 kg[Sroot yield]/m3[EP]   =    8.5 kg[yield]/ha per mm[EP]

--------------------------------------------------------------------------------------------------------------

          CASSAVA YIELD :     3394 kg/ha    [Dry weight] 

**************************************************************************************************************
  

*DSSAT Cropping System Model Ver. 4.8.0.019 -develop  APR 08, 2023 12:34:39

*RUN  10        : IITA-TMS-IBA000070        CSYCA048 UYIK1801    1
 MODEL          : CSYCA048 - Cassava
 EXPERIMENT     : UYIK1801 CS UYT_GXE
 DATA PATH      :
 TREATMENT  1   : IITA-TMS-IBA000070        CSYCA048


 CROP           : Cassava          CULTIVAR : IITA-TMS-IBA0000 ECOTYPE :990017
 STARTING DATE  : JUN 16 2018
 PLANTING DATE  : JUN 17 2018      PLANTS/m2 :     1.0    ROW SPACING : 100.cm
 HARVEST DATE   : JUN 17 2019
 WEATHER        : UYIK   2018
 SOIL           : NG04304916     TEXTURE : SL    - SRIC soilgrids + HC27
 SOIL INITIAL C : DEPTH:200cm EXTR. H2O:237.5mm  NO3:  0.0kg/ha  NH4:  0.0kg/ha
 WATER BALANCE  : RAINFED
 IRRIGATION     : NOT IRRIGATED
 NITROGEN BAL.  : NOT SIMULATED ; NO N-STRESS
 N-FERTILIZER   :
 RESIDUE/MANURE :
 ENVIRONM. OPT. : DAYL=    0.00  SRAD=    0.00  TMAX=    0.00  TMIN=    0.00
                  RAIN=    0.00  CO2 =    0.00  DEW =    0.00  WIND=    0.00
 SIMULATION OPT : WATER   :Y  NITROGEN:N  N-FIX:N  PHOSPH :N  PESTS  :N
                  PHOTO   :R  ET      :R  INFIL:S  HYDROL :R  SOM    :G
                  CO2 408ppm  NSWIT   :1  EVAP :S  SOIL   :2  STEMP  :D
 MANAGEMENT OPT : PLANTING:R  IRRIG   :N  FERT :N  RESIDUE:N  HARVEST:R
                  WEATHER :M  TILLAGE :Y

*SUMMARY OF SOIL AND GENETIC INPUT PARAMETERS

   SOIL LOWER UPPER   SAT  EXTR  INIT   ROOT   BULK     pH    NO3    NH4    ORG
  DEPTH LIMIT LIMIT    SW    SW    SW   DIST   DENS                          C
   cm   cm3/cm3    cm3/cm3    cm3/cm3         g/cm3         ugN/g  ugN/g     %
-------------------------------------------------------------------------------
  0-  5 0.195 0.312 0.415 0.117 0.312   1.00   1.40   5.10   0.00   0.00   2.47
  5- 15 0.208 0.326 0.420 0.118 0.326   0.85   1.42   5.17   0.00   0.00   2.09
 15- 30 0.225 0.344 0.428 0.119 0.344   0.70   1.45   5.26   0.00   0.00   1.59
 30- 45 0.239 0.359 0.436 0.120 0.359   0.50   1.50   5.38   0.00   0.00   1.02
 45- 60 0.239 0.359 0.436 0.120 0.359   0.50   1.50   5.38   0.00   0.00   1.02
 60- 80 0.239 0.359 0.435 0.120 0.359   0.38   1.56   5.52   0.00   0.00   0.59
 80-100 0.239 0.359 0.435 0.120 0.359   0.38   1.56   5.52   0.00   0.00   0.59
100-150 0.228 0.346 0.428 0.118 0.346   0.05   1.62   5.70   0.00   0.00   0.33
150-200 0.228 0.346 0.428 0.118 0.346   0.05   1.62   5.70   0.00   0.00   0.33

TOT-200  46.0  69.7  86.0  23.8  69.7  <--cm   -  kg/ha-->    0.0    0.0      0
SOIL ALBEDO    : 0.10      EVAPORATION LIMIT : 6.00         MIN. FACTOR  : 1.00
RUNOFF CURVE # :75.00      DRAINAGE RATE     : 0.50         FERT. FACTOR : 1.00

 Cassava          CULTIVAR: UC0020-IITA-TMS-IBA0000   ECOTYPE: 990017
  B01ND B12ND B23ND B34ND BR1FX BR2FX BR3FX BR4FX
 1098. 1369.  998.  101.  2.50  2.00  2.00  1.50
  LAXS  SLAS LLIFA LPEFR LNSLP NODWT NODLT
 920.0  226.1800.0   0.3  1.38 10.56  3.49


*SIMULATED CROP AND SOIL STATUS AT MAIN DEVELOPMENT STAGES
  
 RUN NO.     10   UYT_GXE                                                     

 ...... DATE ....... GROWTH STAGE    BIOMASS   LEAF       CROP N      STRESS
 YEARDOY DOM MON DAP ............... kg/ha  AREA NUMBER kg/ha    %   H2O     N
 2019104  14 Apr 301 1 1stBranch      8177 0.372  175.1    0 -99.0  0.09  0.00
 2019168  17 Jun 365 * Harvest        7661 0.566  197.7    0 -99.0  0.00  0.00
  

*MAIN GROWTH AND DEVELOPMENT VARIABLES

@     VARIABLE                           SIMULATED   MEASURED
      --------                           ---------   --------
      Germination  (dap)                      9        -99
      Emergence    (dap)                      9        -99
      1stBranch    (dap)                    301         87
      Harvest      (dap)                   7661       8592
      AboveGround (kg dm/ha)               9606       7049
      Roots+seed residue (kg dm/ha)         519        -99
      Senesced (kg dm/ha)                  1846        -99
      Product (kg dm/ha)                   7661       8592
      AboveGroundVegetative (kg dm/ha)     9606       7049
      HarvestIndex (ratio)                 0.44       0.55
      Reserves (kg dm/ha)                   382        -99
      Product unit wt (g dm)                -99        -99
      Product number (/m2)                  -99        -99
      Product number (/shoot)             -99.0      -99.0
      Maximum leaf area index               3.7        5.0
      Final leaf number (one axis)        197.7      -99.0
      Assimilated N (kg/ha)               -99.0      -99.0
      AboveGround N (kg/ha)               -99.0      -99.0
      Root N (kg/ha)                      -99.0      -99.0
      Senesced N (kg/ha)                    0.0      -99.0
      Product N (kg/ha)                   -99.0      -99.0
      AboveGroundVegetative N (kg/ha)       0.0      -99.0
      N HarvestIndex (ratio)             -99.00     -99.00
      Product N (% dm)                    -99.0      -99.0
      AboveGroundVegetative N (% dm)      -99.0      -99.0

*ENVIRONMENTAL AND STRESS FACTORS

|-------Branching tier-------|-------------Environment--------------|----------------Stress-----------------|
                              |--------Average-------|---Cumulative--|         (0=Min, 1=Max Stress)         |
                         Time  Temp  Temp Solar Photop         Evapo |----Water---|--Nitrogen--|--Phosphorus-|
                         Span   Max   Min   Rad  [day]   Rain  Trans  Photo         Photo         Photo
                         days     C     C MJ/m2     hr     mm     mm  synth Growth  synth Growth  synth Growth
--------------------------------------------------------------------------------------------------------------
 Germinate  - 1stBranch   292  29.3  22.8  16.6  11.92 1628.7 9610.8  0.092  0.199  0.000  0.000 -99.00 -99.00
 1stBranch  - 2ndBranch    65  29.3  24.0  16.4  12.31  388.2 1123.6  0.000  0.118  0.000  0.000 -99.00 -99.00
 16thBranch - Harvest       0 -99.0 -99.0 -99.0 -99.00    0.0    0.0  0.000  0.000  0.000  0.000 -99.00 -99.00
  
 1stBranch  - Harvest     357  29.3  23.0  16.6  11.99 2016.9 1235.6  0.076  0.185  0.000  0.000 -99.00 -99.00
--------------------------------------------------------------------------------------------------------------


*RESOURCE PRODUCTIVITY

 Growing season length: 357 days 

 Precipitation during growth season       2016.9 mm[rain]
   Dry Matter Productivity                  0.48 kg[DM]/m3[rain]          =    4.8 kg[DM]/ha per mm[rain]
   Yield Productivity                       0.38 kg[Sroot yield]/m3[rain] =    3.8 kg[yield]/ha per mm[rain]

 Evapotranspiration during growth season  1235.6 mm[ET]
   Dry Matter Productivity                  0.78 kg[DM]/m3[ET]            =    7.8 kg[DM]/ha per mm[ET]
   Yield Productivity                       0.62 kg[Sroot yield]/m3[ET]   =    6.2 kg[yield]/ha per mm[ET]

 Transpiration during growth season        574.2 mm[EP]
   Dry Matter Productivity                  1.67 kg[DM]/m3[EP]            =   16.7 kg[DM]/ha per mm[EP]
   Yield Productivity                       1.33 kg[Sroot yield]/m3[EP]   =   13.3 kg[yield]/ha per mm[EP]

--------------------------------------------------------------------------------------------------------------

          CASSAVA YIELD :     7661 kg/ha    [Dry weight] 

**************************************************************************************************************
  

*DSSAT Cropping System Model Ver. 4.8.0.019 -develop  APR 08, 2023 12:34:39

*RUN  11        : IITA-TMS-IBA000070        CSYCA048 UYIK1901    1
 MODEL          : CSYCA048 - Cassava
 EXPERIMENT     : UYIK1901 CS UYT_GXE
 DATA PATH      :
 TREATMENT  1   : IITA-TMS-IBA000070        CSYCA048


 CROP           : Cassava          CULTIVAR : IITA-TMS-IBA0000 ECOTYPE :990017
 STARTING DATE  : MAY 31 2019
 PLANTING DATE  : MAY 31 2019      PLANTS/m2 :     1.0    ROW SPACING : 100.cm
 HARVEST DATE   : JUN 14 2020
 WEATHER        : UYIK   2019
 SOIL           : NG04304916     TEXTURE : SL    - SRIC soilgrids + HC27
 SOIL INITIAL C : DEPTH:200cm EXTR. H2O:237.5mm  NO3:  0.0kg/ha  NH4:  0.0kg/ha
 WATER BALANCE  : RAINFED
 IRRIGATION     : NOT IRRIGATED
 NITROGEN BAL.  : NOT SIMULATED ; NO N-STRESS
 N-FERTILIZER   :
 RESIDUE/MANURE :
 ENVIRONM. OPT. : DAYL=    0.00  SRAD=    0.00  TMAX=    0.00  TMIN=    0.00
                  RAIN=    0.00  CO2 =    0.00  DEW =    0.00  WIND=    0.00
 SIMULATION OPT : WATER   :Y  NITROGEN:N  N-FIX:N  PHOSPH :N  PESTS  :N
                  PHOTO   :R  ET      :R  INFIL:S  HYDROL :R  SOM    :G
                  CO2 411ppm  NSWIT   :1  EVAP :S  SOIL   :2  STEMP  :D
 MANAGEMENT OPT : PLANTING:R  IRRIG   :N  FERT :N  RESIDUE:N  HARVEST:R
                  WEATHER :M  TILLAGE :Y

*SUMMARY OF SOIL AND GENETIC INPUT PARAMETERS

   SOIL LOWER UPPER   SAT  EXTR  INIT   ROOT   BULK     pH    NO3    NH4    ORG
  DEPTH LIMIT LIMIT    SW    SW    SW   DIST   DENS                          C
   cm   cm3/cm3    cm3/cm3    cm3/cm3         g/cm3         ugN/g  ugN/g     %
-------------------------------------------------------------------------------
  0-  5 0.195 0.312 0.415 0.117 0.312   1.00   1.40   5.10   0.00   0.00   2.47
  5- 15 0.208 0.326 0.420 0.118 0.326   0.85   1.42   5.17   0.00   0.00   2.09
 15- 30 0.225 0.344 0.428 0.119 0.344   0.70   1.45   5.26   0.00   0.00   1.59
 30- 45 0.239 0.359 0.436 0.120 0.359   0.50   1.50   5.38   0.00   0.00   1.02
 45- 60 0.239 0.359 0.436 0.120 0.359   0.50   1.50   5.38   0.00   0.00   1.02
 60- 80 0.239 0.359 0.435 0.120 0.359   0.38   1.56   5.52   0.00   0.00   0.59
 80-100 0.239 0.359 0.435 0.120 0.359   0.38   1.56   5.52   0.00   0.00   0.59
100-150 0.228 0.346 0.428 0.118 0.346   0.05   1.62   5.70   0.00   0.00   0.33
150-200 0.228 0.346 0.428 0.118 0.346   0.05   1.62   5.70   0.00   0.00   0.33

TOT-200  46.0  69.7  86.0  23.8  69.7  <--cm   -  kg/ha-->    0.0    0.0      0
SOIL ALBEDO    : 0.10      EVAPORATION LIMIT : 6.00         MIN. FACTOR  : 1.00
RUNOFF CURVE # :75.00      DRAINAGE RATE     : 0.50         FERT. FACTOR : 1.00

 Cassava          CULTIVAR: UC0020-IITA-TMS-IBA0000   ECOTYPE: 990017
  B01ND B12ND B23ND B34ND BR1FX BR2FX BR3FX BR4FX
 1098. 1369.  998.  101.  2.50  2.00  2.00  1.50
  LAXS  SLAS LLIFA LPEFR LNSLP NODWT NODLT
 920.0  226.1800.0   0.3  1.38 10.56  3.49


*SIMULATED CROP AND SOIL STATUS AT MAIN DEVELOPMENT STAGES
  
 RUN NO.     11   UYT_GXE                                                     

 ...... DATE ....... GROWTH STAGE    BIOMASS   LEAF       CROP N      STRESS
 YEARDOY DOM MON DAP ............... kg/ha  AREA NUMBER kg/ha    %   H2O     N
 2020106  15 Apr 320 1 1stBranch      8380 0.189  173.0    0 -99.0  0.16  0.00
 2020166  14 Jun 380 * Harvest        6343 0.477  193.9    0 -99.0  0.00  0.00
  

*MAIN GROWTH AND DEVELOPMENT VARIABLES

@     VARIABLE                           SIMULATED   MEASURED
      --------                           ---------   --------
      Germination  (dap)                      9        -99
      Emergence    (dap)                      9        -99
      1stBranch    (dap)                    320         87
      Harvest      (dap)                   6343      17732
      AboveGround (kg dm/ha)               9675      14635
      Roots+seed residue (kg dm/ha)         497        -99
      Senesced (kg dm/ha)                  1894        -99
      Product (kg dm/ha)                   6343      17732
      AboveGroundVegetative (kg dm/ha)     9675      14635
      HarvestIndex (ratio)                 0.39       0.55
      Reserves (kg dm/ha)                   317        -99
      Product unit wt (g dm)                -99        -99
      Product number (/m2)                  -99        -99
      Product number (/shoot)             -99.0      -99.0
      Maximum leaf area index               3.8        5.0
      Final leaf number (one axis)        193.9      -99.0
      Assimilated N (kg/ha)               -99.0      -99.0
      AboveGround N (kg/ha)               -99.0      -99.0
      Root N (kg/ha)                      -99.0      -99.0
      Senesced N (kg/ha)                    0.0      -99.0
      Product N (kg/ha)                   -99.0      -99.0
      AboveGroundVegetative N (kg/ha)       0.0      -99.0
      N HarvestIndex (ratio)             -99.00     -99.00
      Product N (% dm)                    -99.0      -99.0
      AboveGroundVegetative N (% dm)      -99.0      -99.0

*ENVIRONMENTAL AND STRESS FACTORS

|-------Branching tier-------|-------------Environment--------------|----------------Stress-----------------|
                              |--------Average-------|---Cumulative--|         (0=Min, 1=Max Stress)         |
                         Time  Temp  Temp Solar Photop         Evapo |----Water---|--Nitrogen--|--Phosphorus-|
                         Span   Max   Min   Rad  [day]   Rain  Trans  Photo         Photo         Photo
                         days     C     C MJ/m2     hr     mm     mm  synth Growth  synth Growth  synth Growth
[...]
 45- 60 0.196 0.311 0.414 0.115 0.311   0.50   1.33   6.10   0.00   0.00   1.16
 60- 80 0.196 0.310 0.413 0.114 0.310   0.38   1.39   6.24   0.00   0.00   0.68
 80-100 0.196 0.310 0.413 0.114 0.310   0.38   1.39   6.24   0.00   0.00   0.68
100-150 0.186 0.297 0.408 0.111 0.297   0.05   1.45   6.42   0.00   0.00   0.37
150-200 0.186 0.297 0.408 0.111 0.297   0.05   1.45   6.42   0.00   0.00   0.37

TOT-200  37.5  59.9  81.9  22.5  59.9  <--cm   -  kg/ha-->    0.0    0.0      0
SOIL ALBEDO    : 0.10      EVAPORATION LIMIT : 6.00         MIN. FACTOR  : 1.00
RUNOFF CURVE # :75.00      DRAINAGE RATE     : 0.50         FERT. FACTOR : 1.00

 Cassava          CULTIVAR: UC0020-IITA-TMS-IBA0000   ECOTYPE: 990017
  B01ND B12ND B23ND B34ND BR1FX BR2FX BR3FX BR4FX
 1098. 1369.  998.  101.  2.50  2.00  2.00  1.50
  LAXS  SLAS LLIFA LPEFR LNSLP NODWT NODLT
 920.0  226.1800.0   0.3  1.38 10.56  3.49


*SIMULATED CROP AND SOIL STATUS AT MAIN DEVELOPMENT STAGES
  
 RUN NO.     18   UYT_GXE                                                     

 ...... DATE ....... GROWTH STAGE    BIOMASS   LEAF       CROP N      STRESS
 YEARDOY DOM MON DAP ............... kg/ha  AREA NUMBER kg/ha    %   H2O     N
 2020122   1 May 335 1 1stBranch      8430 0.181  169.7    0 -99.0  0.21  0.00
 2020155   3 Jun 368 * Harvest        4855 0.401  183.2    0 -99.0  0.00  0.00
  

*MAIN GROWTH AND DEVELOPMENT VARIABLES

@     VARIABLE                           SIMULATED   MEASURED
      --------                           ---------   --------
      Germination  (dap)                      9        -99
      Emergence    (dap)                      9        -99
      1stBranch    (dap)                    335         86
      Harvest      (dap)                   4855       5890
      AboveGround (kg dm/ha)               9183       2911
      Roots+seed residue (kg dm/ha)         502        -99
      Senesced (kg dm/ha)                  1781        -99
      Product (kg dm/ha)                   4855       5890
      AboveGroundVegetative (kg dm/ha)     9183       2911
      HarvestIndex (ratio)                 0.34       0.67
      Reserves (kg dm/ha)                   242        -99
      Product unit wt (g dm)                -99        -99
      Product number (/m2)                  -99        -99
      Product number (/shoot)             -99.0      -99.0
      Maximum leaf area index               3.6        5.0
      Final leaf number (one axis)        183.2      -99.0
      Assimilated N (kg/ha)               -99.0      -99.0
      AboveGround N (kg/ha)               -99.0      -99.0
      Root N (kg/ha)                      -99.0      -99.0
      Senesced N (kg/ha)                    0.0      -99.0
      Product N (kg/ha)                   -99.0      -99.0
      AboveGroundVegetative N (kg/ha)       0.0      -99.0
      N HarvestIndex (ratio)             -99.00     -99.00
      Product N (% dm)                    -99.0      -99.0
      AboveGroundVegetative N (% dm)      -99.0      -99.0

*ENVIRONMENTAL AND STRESS FACTORS

|-------Branching tier-------|-------------Environment--------------|----------------Stress-----------------|
                              |--------Average-------|---Cumulative--|         (0=Min, 1=Max Stress)         |
                         Time  Temp  Temp Solar Photop         Evapo |----Water---|--Nitrogen--|--Phosphorus-|
                         Span   Max   Min   Rad  [day]   Rain  Trans  Photo         Photo         Photo
                         days     C     C MJ/m2     hr     mm     mm  synth Growth  synth Growth  synth Growth
--------------------------------------------------------------------------------------------------------------
 Germinate  - 1stBranch   326  29.4  21.8  16.6  11.96 2089.617162.0  0.211  0.293  0.000  0.000 -99.00 -99.00
 1stBranch  - 2ndBranch    34  29.7  23.6  18.4  12.33  120.8 1960.7  0.000  0.068  0.000  0.000 -99.00 -99.00
 16thBranch - Harvest       0 -99.0 -99.0 -99.0 -99.00    0.0    0.0  0.000  0.000  0.000  0.000 -99.00 -99.00
  
 1stBranch  - Harvest     360  29.4  22.0  16.8  11.99 2210.4 1108.3  0.191  0.272  0.000  0.000 -99.00 -99.00
--------------------------------------------------------------------------------------------------------------


*RESOURCE PRODUCTIVITY

 Growing season length: 360 days 

 Precipitation during growth season       2210.4 mm[rain]
   Dry Matter Productivity                  0.42 kg[DM]/m3[rain]          =    4.2 kg[DM]/ha per mm[rain]
   Yield Productivity                       0.22 kg[Sroot yield]/m3[rain] =    2.2 kg[yield]/ha per mm[rain]

 Evapotranspiration during growth season  1108.3 mm[ET]
   Dry Matter Productivity                  0.83 kg[DM]/m3[ET]            =    8.3 kg[DM]/ha per mm[ET]
   Yield Productivity                       0.44 kg[Sroot yield]/m3[ET]   =    4.4 kg[yield]/ha per mm[ET]

 Transpiration during growth season        513.5 mm[EP]
   Dry Matter Productivity                  1.79 kg[DM]/m3[EP]            =   17.9 kg[DM]/ha per mm[EP]
   Yield Productivity                       0.95 kg[Sroot yield]/m3[EP]   =    9.5 kg[yield]/ha per mm[EP]

--------------------------------------------------------------------------------------------------------------

          CASSAVA YIELD :     4855 kg/ha    [Dry weight] 

**************************************************************************************************************
  

*DSSAT Cropping System Model Ver. 4.8.0.019 -develop  APR 08, 2023 12:34:41

*RUN  19        : IITA-TMS-IBA000070        CSYCA048 UYUM1801    1
 MODEL          : CSYCA048 - Cassava
 EXPERIMENT     : UYUM1801 CS UYT_GXE
 DATA PATH      :
 TREATMENT  1   : IITA-TMS-IBA000070        CSYCA048


 CROP           : Cassava          CULTIVAR : IITA-TMS-IBA0000 ECOTYPE :990017
 STARTING DATE  : JUL 27 2018
 PLANTING DATE  : JUL 27 2018      PLANTS/m2 :     1.0    ROW SPACING : 100.cm
 HARVEST DATE   : JUL 27 2019
 WEATHER        : UYUM   2018
 SOIL           : NG04365455     TEXTURE : SL    - ISRIC soilgrids + HC27
 SOIL INITIAL C : DEPTH:200cm EXTR. H2O:232.7mm  NO3:  0.0kg/ha  NH4:  0.0kg/ha
 WATER BALANCE  : RAINFED
 IRRIGATION     : NOT IRRIGATED
 NITROGEN BAL.  : NOT SIMULATED ; NO N-STRESS
 N-FERTILIZER   :
 RESIDUE/MANURE :
 ENVIRONM. OPT. : DAYL=    0.00  SRAD=    0.00  TMAX=    0.00  TMIN=    0.00
                  RAIN=    0.00  CO2 =    0.00  DEW =    0.00  WIND=    0.00
 SIMULATION OPT : WATER   :Y  NITROGEN:N  N-FIX:N  PHOSPH :N  PESTS  :N
                  PHOTO   :R  ET      :R  INFIL:S  HYDROL :R  SOM    :G
                  CO2 409ppm  NSWIT   :1  EVAP :S  SOIL   :2  STEMP  :D
 MANAGEMENT OPT : PLANTING:R  IRRIG   :N  FERT :N  RESIDUE:N  HARVEST:R
                  WEATHER :M  TILLAGE :Y

*SUMMARY OF SOIL AND GENETIC INPUT PARAMETERS

   SOIL LOWER UPPER   SAT  EXTR  INIT   ROOT   BULK     pH    NO3    NH4    ORG
  DEPTH LIMIT LIMIT    SW    SW    SW   DIST   DENS                          C
   cm   cm3/cm3    cm3/cm3    cm3/cm3         g/cm3         ugN/g  ugN/g     %
-------------------------------------------------------------------------------
  0-  5 0.164 0.278 0.403 0.114 0.278   1.00   1.29   5.21   0.00   0.00   2.10
  5- 15 0.176 0.292 0.407 0.116 0.292   0.85   1.31   5.28   0.00   0.00   1.78
 15- 30 0.192 0.309 0.414 0.117 0.309   0.70   1.34   5.38   0.00   0.00   1.35
 30- 45 0.207 0.326 0.421 0.119 0.326   0.50   1.39   5.49   0.00   0.00   0.86
 45- 60 0.207 0.326 0.421 0.119 0.326   0.50   1.39   5.49   0.00   0.00   0.86
 60- 80 0.206 0.324 0.419 0.118 0.324   0.38   1.45   5.63   0.00   0.00   0.51
 80-100 0.206 0.324 0.419 0.118 0.324   0.38   1.45   5.63   0.00   0.00   0.51
100-150 0.196 0.311 0.414 0.115 0.311   0.05   1.50   5.81   0.00   0.00   0.28
150-200 0.196 0.311 0.414 0.115 0.311   0.05   1.50   5.81   0.00   0.00   0.28

TOT-200  39.5  62.8  83.1  23.3  62.8  <--cm   -  kg/ha-->    0.0    0.0      0
SOIL ALBEDO    : 0.10      EVAPORATION LIMIT : 6.00         MIN. FACTOR  : 1.00
RUNOFF CURVE # :75.00      DRAINAGE RATE     : 0.50         FERT. FACTOR : 1.00

 Cassava          CULTIVAR: UC0020-IITA-TMS-IBA0000   ECOTYPE: 990017
  B01ND B12ND B23ND B34ND BR1FX BR2FX BR3FX BR4FX
 1098. 1369.  998.  101.  2.50  2.00  2.00  1.50
  LAXS  SLAS LLIFA LPEFR LNSLP NODWT NODLT
 920.0  226.1800.0   0.3  1.38 10.56  3.49


*SIMULATED CROP AND SOIL STATUS AT MAIN DEVELOPMENT STAGES
  
 RUN NO.     19   UYT_GXE                                                     

 ...... DATE ....... GROWTH STAGE    BIOMASS   LEAF       CROP N      STRESS
 YEARDOY DOM MON DAP ............... kg/ha  AREA NUMBER kg/ha    %   H2O     N
 2019208  27 Jul 365 * Harvest        2004 0.514  175.5    0 -99.0  0.00  0.00
  

*MAIN GROWTH AND DEVELOPMENT VARIABLES

@     VARIABLE                           SIMULATED   MEASURED
      --------                           ---------   --------
      Germination  (dap)                      9        -99
      Emergence    (dap)                      9        -99
      Harvest      (dap)                   2004      12787
      AboveGround (kg dm/ha)               9410       5867
      Roots+seed residue (kg dm/ha)         515        -99
      Senesced (kg dm/ha)                  1796        -99
      Product (kg dm/ha)                   2004      12787
      AboveGroundVegetative (kg dm/ha)     9410       5867
      HarvestIndex (ratio)                 0.17       0.69
      Reserves (kg dm/ha)                   100        -99
      Product unit wt (g dm)                -99        -99
      Product number (/m2)                  -99        -99
      Product number (/shoot)             -99.0      -99.0
      Maximum leaf area index               3.8        5.0
      Final leaf number (one axis)        175.5      -99.0
      Assimilated N (kg/ha)               -99.0      -99.0
      AboveGround N (kg/ha)               -99.0      -99.0
      Root N (kg/ha)                      -99.0      -99.0
      Senesced N (kg/ha)                    0.0      -99.0
      Product N (kg/ha)                   -99.0      -99.0
      AboveGroundVegetative N (kg/ha)       0.0      -99.0
      N HarvestIndex (ratio)             -99.00     -99.00
      Product N (% dm)                    -99.0      -99.0
      AboveGroundVegetative N (% dm)      -99.0      -99.0

*ENVIRONMENTAL AND STRESS FACTORS

|-------Branching tier-------|-------------Environment--------------|----------------Stress-----------------|
                              |--------Average-------|---Cumulative--|         (0=Min, 1=Max Stress)         |
                         Time  Temp  Temp Solar Photop         Evapo |----Water---|--Nitrogen--|--Phosphorus-|
                         Span   Max   Min   Rad  [day]   Rain  Trans  Photo         Photo         Photo
                         days     C     C MJ/m2     hr     mm     mm  synth Growth  synth Growth  synth Growth
--------------------------------------------------------------------------------------------------------------
 Germinate  - 1stBranch   357  29.4  22.9  16.3  11.99 1595.918197.8  0.274  0.347  0.000  0.000 -99.00 -99.00
 16thBranch - Harvest       0 -99.0 -99.0 -99.0 -99.00    0.0    0.0  0.000  0.000  0.000  0.000 -99.00 -99.00
  
 1stBranch  - Harvest     357  29.4  22.9  16.3  11.99 1595.9 1035.8  0.274  0.347  0.000  0.000 -99.00 -99.00
--------------------------------------------------------------------------------------------------------------


*RESOURCE PRODUCTIVITY

 Growing season length: 357 days 

 Precipitation during growth season       1595.9 mm[rain]
   Dry Matter Productivity                  0.59 kg[DM]/m3[rain]          =    5.9 kg[DM]/ha per mm[rain]
   Yield Productivity                       0.13 kg[Sroot yield]/m3[rain] =    1.3 kg[yield]/ha per mm[rain]

 Evapotranspiration during growth season  1035.8 mm[ET]
   Dry Matter Productivity                  0.91 kg[DM]/m3[ET]            =    9.1 kg[DM]/ha per mm[ET]
   Yield Productivity                       0.19 kg[Sroot yield]/m3[ET]   =    1.9 kg[yield]/ha per mm[ET]

 Transpiration during growth season        432.0 mm[EP]
   Dry Matter Productivity                  2.18 kg[DM]/m3[EP]            =   21.8 kg[DM]/ha per mm[EP]
   Yield Productivity                       0.46 kg[Sroot yield]/m3[EP]   =    4.6 kg[yield]/ha per mm[EP]

--------------------------------------------------------------------------------------------------------------

          CASSAVA YIELD :     2004 kg/ha    [Dry weight] 

**************************************************************************************************************
  

*DSSAT Cropping System Model Ver. 4.8.0.019 -develop  APR 08, 2023 12:34:41

*RUN  20        : IITA-TMS-IBA000070        CSYCA048 UYZA1901    1
 MODEL          : CSYCA048 - Cassava
 EXPERIMENT     : UYZA1901 CS UYT_GXE
 DATA PATH      :
 TREATMENT  1   : IITA-TMS-IBA000070        CSYCA048


 CROP           : Cassava          CULTIVAR : IITA-TMS-IBA0000 ECOTYPE :990017
 STARTING DATE  : JUN 22 2019
 PLANTING DATE  : JUN 23 2019      PLANTS/m2 :     1.0    ROW SPACING : 100.cm
 HARVEST DATE   : AUG  3 2020
 WEATHER        : UYZA   2019
 SOIL           : NG04088975     TEXTURE : SL    -  ISRIC soilgrids + HC27
 SOIL INITIAL C : DEPTH:200cm EXTR. H2O:213.5mm  NO3:  0.0kg/ha  NH4:  0.0kg/ha
 WATER BALANCE  : RAINFED
 IRRIGATION     : NOT IRRIGATED
 NITROGEN BAL.  : NOT SIMULATED ; NO N-STRESS
 N-FERTILIZER   :
 RESIDUE/MANURE :
 ENVIRONM. OPT. : DAYL=    0.00  SRAD=    0.00  TMAX=    0.00  TMIN=    0.00
                  RAIN=    0.00  CO2 =    0.00  DEW =    0.00  WIND=    0.00
 SIMULATION OPT : WATER   :Y  NITROGEN:N  N-FIX:N  PHOSPH :N  PESTS  :N
                  PHOTO   :R  ET      :R  INFIL:S  HYDROL :R  SOM    :G
                  CO2 411ppm  NSWIT   :1  EVAP :S  SOIL   :2  STEMP  :D
 MANAGEMENT OPT : PLANTING:R  IRRIG   :N  FERT :N  RESIDUE:N  HARVEST:R
                  WEATHER :M  TILLAGE :Y

*SUMMARY OF SOIL AND GENETIC INPUT PARAMETERS

   SOIL LOWER UPPER   SAT  EXTR  INIT   ROOT   BULK     pH    NO3    NH4    ORG
  DEPTH LIMIT LIMIT    SW    SW    SW   DIST   DENS                          C
   cm   cm3/cm3    cm3/cm3    cm3/cm3         g/cm3         ugN/g  ugN/g     %
-------------------------------------------------------------------------------
  0-  5 0.140 0.245 0.393 0.105 0.193   1.00   1.24   6.10   0.80   0.10   1.42
  5- 15 0.152 0.258 0.396 0.106 0.205   0.85   1.26   6.16   0.80   0.10   1.20
 15- 30 0.167 0.276 0.401 0.109 0.221   0.70   1.29   6.26   0.80   0.10   0.92
 30- 45 0.181 0.290 0.405 0.109 0.235   0.50   1.34   6.38   0.80   0.10   0.59
 45- 60 0.181 0.290 0.405 0.109 0.235   0.50   1.34   6.38   0.80   0.10   0.59
 60- 80 0.180 0.289 0.404 0.109 0.235   0.38   1.40   6.52   0.80   0.10   0.33
 80-100 0.180 0.289 0.404 0.109 0.235   0.38   1.40   6.52   0.80   0.10   0.33
100-150 0.170 0.275 0.400 0.105 0.223   0.05   1.46   6.70   0.80   0.10   0.20
150-200 0.170 0.275 0.400 0.105 0.223   0.05   1.46   6.70   0.80   0.10   0.20

TOT-200  34.4  55.7  80.2  21.4  45.1  <--cm   -  kg/ha-->    0.0    0.0      0
SOIL ALBEDO    : 0.10      EVAPORATION LIMIT : 6.00         MIN. FACTOR  : 1.00
RUNOFF CURVE # :75.00      DRAINAGE RATE     : 0.50         FERT. FACTOR : 1.00

 Cassava          CULTIVAR: UC0020-IITA-TMS-IBA0000   ECOTYPE: 990017
  B01ND B12ND B23ND B34ND BR1FX BR2FX BR3FX BR4FX
 1098. 1369.  998.  101.  2.50  2.00  2.00  1.50
  LAXS  SLAS LLIFA LPEFR LNSLP NODWT NODLT
 920.0  226.1800.0   0.3  1.38 10.56  3.49


*SIMULATED CROP AND SOIL STATUS AT MAIN DEVELOPMENT STAGES
  
 RUN NO.     20   UYT_GXE                                                     

 ...... DATE ....... GROWTH STAGE    BIOMASS   LEAF       CROP N      STRESS
 YEARDOY DOM MON DAP ............... kg/ha  AREA NUMBER kg/ha    %   H2O     N
 2020153   1 Jun 344 1 1stBranch      8736 0.591  164.6    0 -99.0  0.26  0.00
 2020216   3 Aug 407 * Harvest        6412 1.089  187.9    0 -99.0  0.00  0.00
  

*MAIN GROWTH AND DEVELOPMENT VARIABLES

@     VARIABLE                           SIMULATED   MEASURED
      --------                           ---------   --------
      Germination  (dap)                      9        -99
      Emergence    (dap)                      9        -99
      1stBranch    (dap)                    344         87
      Harvest      (dap)                   6412      10118
      AboveGround (kg dm/ha)              10185       6083
      Roots+seed residue (kg dm/ha)         506        -99
      Senesced (kg dm/ha)                  2122        -99
      Product (kg dm/ha)                   6412      10118
      AboveGroundVegetative (kg dm/ha)    10185       6083
      HarvestIndex (ratio)                 0.38       0.62
      Reserves (kg dm/ha)                   321        -99
      Product unit wt (g dm)                -99        -99
      Product number (/m2)                  -99        -99
      Product number (/shoot)             -99.0      -99.0
      Maximum leaf area index               4.7        5.0
      Final leaf number (one axis)        187.9      -99.0
      Assimilated N (kg/ha)               -99.0      -99.0
      AboveGround N (kg/ha)               -99.0      -99.0
      Root N (kg/ha)                      -99.0      -99.0
      Senesced N (kg/ha)                    0.0      -99.0
      Product N (kg/ha)                   -99.0      -99.0
      AboveGroundVegetative N (kg/ha)       0.0      -99.0
      N HarvestIndex (ratio)             -99.00     -99.00
      Product N (% dm)                    -99.0      -99.0
      AboveGroundVegetative N (% dm)      -99.0      -99.0

*ENVIRONMENTAL AND STRESS FACTORS

|-------Branching tier-------|-------------Environment--------------|----------------Stress-----------------|
                              |--------Average-------|---Cumulative--|         (0=Min, 1=Max Stress)         |
                         Time  Temp  Temp Solar Photop         Evapo |----Water---|--Nitrogen--|--Phosphorus-|
                         Span   Max   Min   Rad  [day]   Rain  Trans  Photo         Photo         Photo
                         days     C     C MJ/m2     hr     mm     mm  synth Growth  synth Growth  synth Growth
--------------------------------------------------------------------------------------------------------------
 Germinate  - 1stBranch   335  30.0  18.3  20.4  11.94 1600.619292.1  0.258  0.310  0.000  0.000 -99.00 -99.00
 1stBranch  - 2ndBranch    64  27.9  20.9  19.5  12.60  857.4 2219.0  0.000  0.000  0.000  0.000 -99.00 -99.00
 16thBranch - Harvest       0 -99.0 -99.0 -99.0 -99.00    0.0    0.0  0.000  0.000  0.000  0.000 -99.00 -99.00
  
 1stBranch  - Harvest     399  29.7  18.7  20.3  12.05 2458.0 1352.6  0.217  0.260  0.000  0.000 -99.00 -99.00
--------------------------------------------------------------------------------------------------------------


*RESOURCE PRODUCTIVITY

 Growing season length: 399 days 

 Precipitation during growth season       2458.0 mm[rain]
   Dry Matter Productivity                  0.41 kg[DM]/m3[rain]          =    4.1 kg[DM]/ha per mm[rain]
   Yield Productivity                       0.26 kg[Sroot yield]/m3[rain] =    2.6 kg[yield]/ha per mm[rain]

 Evapotranspiration during growth season  1352.6 mm[ET]
   Dry Matter Productivity                  0.75 kg[DM]/m3[ET]            =    7.5 kg[DM]/ha per mm[ET]
   Yield Productivity                       0.47 kg[Sroot yield]/m3[ET]   =    4.7 kg[yield]/ha per mm[ET]

 Transpiration during growth season        652.3 mm[EP]
   Dry Matter Productivity                  1.56 kg[DM]/m3[EP]            =   15.6 kg[DM]/ha per mm[EP]
   Yield Productivity                       0.98 kg[Sroot yield]/m3[EP]   =    9.8 kg[yield]/ha per mm[EP]

--------------------------------------------------------------------------------------------------------------

          CASSAVA YIELD :     6412 kg/ha    [Dry weight] 

**************************************************************************************************************
