$GROWTH FACTOR OUTPUTS FILE

*DSSAT Cropping System Model Ver. 4.8.0.019 -develop  JAN 07, 2022 20:10:05

*RUN   1        : TMEB419                   CSYCA048 UYAB1901    5
 MODEL          : CSYCA048 - Cassava
 EXPERIMENT     : UYAB1901 CS UYT_GXE
 DATA PATH      :
 TREATMENT  5   : TMEB419                   CSYCA048
  
!........DATES.......  ...TEMP... STAGE  ...PHENOLOGY....  ....PHOTOSYNTHESIS....  .....GROWTH..... H2O STRESS DETERMINANTS .N STRESS DETERMINANTS.
@YEAR DOY   DAS   DAP TMEAN TCDIF  GSTD    DU DYLFD  TFPD  WFPD  NFPD CO2FD RSFPD  TFGD  WFGD  NFGD WAVRD WUPRD  SWXD  EOPD  SNXD LN%RD SN%RD RN%RD            
 2019 169     0     0  28.9 -99.0     0   0.0  0.00  0.00  0.00  0.00  0.00  0.00  0.00  0.00  0.00 99.90  1.00  26.5  0.00   0.0  0.00  0.00  0.00
 2019 170     1     1  29.0 -29.0     0   0.0  0.00  0.00  0.00  0.00  0.00  0.00  0.00  0.00  0.00 99.90  1.00  31.1  0.00   0.0  0.00  0.00  0.00
 2019 171     2     2  26.7 -26.7     0   0.0  0.00  0.00  0.00  0.00  0.00  0.00  0.00  0.00  0.00 99.90  1.00  28.0  0.00   0.0  0.00  0.00  0.00
 2019 172     3     3  27.7 -27.7     0   0.0  0.00  0.00  0.00  0.00  0.00  0.00  0.00  0.00  0.00 99.90  1.00  25.2  0.00   0.0  0.00  0.00  0.00
 2019 173     4     4  25.8 -25.8     0   0.0  0.00  0.00  0.00  0.00  0.00  0.00  0.00  0.00  0.00 99.90  1.00  28.1  0.00   0.0  0.00  0.00  0.00
 2019 174     5     5  27.6 -27.6     0   0.0  0.00  0.00  0.00  0.00  0.00  0.00  0.00  0.00  0.00 99.90  1.00  25.9  0.00   0.0  0.00  0.00  0.00
 2019 175     6     6  24.4 -24.4     0   0.0  0.00  0.00  0.00  0.00  0.00  0.00  0.00  0.00  0.00 99.90  1.00  32.9  0.00   0.0  0.00  0.00  0.00
 2019 176     7     7  26.4 -26.4     0   0.0  0.00  0.00  0.00  0.00  0.00  0.00  0.00  0.00  0.00 99.90  1.00  27.4  0.00   0.0  0.00  0.00  0.00
 2019 177     8     8  25.0 -25.0     0   0.0  0.00  0.00  0.00  0.00 -0.06  0.00  0.00  0.00  0.00 99.90  1.00  27.5  0.00   0.0  1.00  1.00  1.00
 2019 178     9     9  25.0 -25.0 .0084   5.0  0.00  0.00  0.00  0.00 -0.06  0.00  0.00  0.00  0.00 99.90  1.00  27.8  0.00   0.0  1.00  1.00  1.00
 2019 179    10    10  26.4 -26.4 .0168   5.0  0.00  0.00  0.00  0.00 -0.06  0.00  0.00  0.00  0.00 99.90  1.00  28.1  0.00   0.0  1.00  1.00  1.00
 2019 180    11    11  27.3 -27.3 .0246   4.6  0.00  0.00  0.00  0.00 -0.06  0.00  0.00  0.00  0.00 99.90  1.00  28.5  0.00   0.0  1.00  1.00  1.00
 2019 181    12    12  27.4 -27.4 .0319   4.3  0.00  0.00  0.00  0.00 -0.06  0.00  0.00  0.00  0.00 99.90  1.00  36.2  0.00   0.0  1.00  1.00  1.00
 2019 182    13    13  25.8 -25.8 .0392   4.3  0.00  0.00  0.00  0.00 -0.06  0.00  0.00  0.00  0.00 99.90  1.00  38.5  0.00   0.0  1.00  1.00  1.00
 2019 183    14    14  26.5 -26.5 .0472   4.8  0.00  0.00  0.00  0.00 -0.06  0.00  0.00  0.00  0.00 99.90  1.00  36.6  0.01   0.0  1.00  1.00  1.00
 2019 184    15    15  26.8 -26.8 .0549   4.6  0.00  0.00  0.00  0.00 -0.06  0.00  0.00  0.00  0.00 99.90  1.00  39.1  0.03   0.0  1.00  1.00  1.00
 2019 185    16    16  26.8 -26.8 .0625   4.5  0.00  0.00  0.00  0.00 -0.06  0.00  0.00  0.00  0.00 99.90  1.00  51.4  0.05   0.0  1.00  1.00  1.00
 2019 186    17    17  25.7 -25.7 .0701   4.5  0.00  0.00  0.00  0.00 -0.06  0.00  0.00  0.00  0.00 99.90  1.00  53.3  0.09   0.0  1.00  1.00  1.00
 2019 187    18    18  27.2 -27.2 .0781   4.8  0.00  0.00  0.00  0.00 -0.06  0.00  0.00  0.00  0.00 99.90  1.00  50.0  0.14   0.0  1.00  1.00  1.00
 2019 188    19    19  27.2 -27.2 .0855   4.4  0.00  0.00  0.00  0.00 -0.06  0.00  0.00  0.00  0.00 99.90  1.00  56.4  0.18   0.0  1.00  1.00  1.00
 2019 189    20    20  23.8 -23.8 .0929   4.4  0.00  0.08  0.00  0.00 -0.06  0.00  0.01  0.00  0.00 99.90  1.00  54.8  0.24   0.0  1.00  1.00  1.00
 2019 190    21    21  26.4 -26.4 0.101   5.0  0.00  0.00  0.00  0.00 -0.06  0.00  0.00  0.00  0.00 99.90  1.00  52.0  0.32   0.0  1.00  1.00  1.00
 2019 191    22    22  26.0 -26.0 0.109   4.6  0.00  0.00  0.00  0.00 -0.06  0.00  0.00  0.00  0.00 99.90  1.00  50.5  0.40   0.0  1.00  1.00  1.00
 2019 192    23    23  24.4 -24.4 0.117   4.7  0.00  0.04  0.00  0.00 -0.06  0.00  0.00  0.00  0.00 99.90  1.00  51.1  0.40   0.0  1.00  1.00  1.00
 2019 193    24    24  25.5 -25.5 0.125   5.0  0.00  0.00  0.00  0.00 -0.06  0.00  0.00  0.00  0.00 99.90  1.00  65.5  0.50   0.0  1.00  1.00  1.00
 2019 194    25    25  26.5 -26.5 0.134   4.9  0.00  0.00  0.00  0.00 -0.06  0.00  0.00  0.00  0.00 87.63  1.00  56.5  0.64   0.0  1.00  1.00  1.00
 2019 195    26    26  26.0 -26.0 0.141   4.6  0.00  0.00  0.00  0.00 -0.06  0.00  0.00  0.00  0.00 99.90  1.00  69.0  0.69   0.0  1.00  1.00  1.00
 2019 196    27    27  26.2 -26.2 0.149   4.7  0.00  0.00  0.00  0.00 -0.06  0.00  0.00  0.00  0.00 95.18  1.00  70.5  0.74   0.0  1.00  1.00  1.00
 2019 197    28    28  27.5 -27.5 0.157   4.7  0.00  0.00  0.00  0.00 -0.06  0.00  0.00  0.00  0.00 74.76  1.00  65.5  0.88   0.0  1.00  1.00  1.00
 2019 198    29    29  27.4 -27.4 0.164   4.3  0.00  0.00  0.00  0.00 -0.06  0.00  0.00  0.00  0.00 64.03  1.00  62.6  0.98   0.0  1.00  1.00  1.00
 2019 199    30    30  26.5 -26.5 0.172   4.3  0.00  0.00  0.00  0.00 -0.06  0.00  0.00  0.00  0.00 69.30  1.00  59.0  0.85   0.0  1.00  1.00  1.00
 2019 200    31    31  24.8 -24.8 0.179   4.6  0.00  0.02  0.00  0.00 -0.06  0.00  0.00  0.00  0.00 74.92  1.00  69.3  0.92   0.0  1.00  1.00  1.00
 2019 201    32    32  26.0 -26.0 0.188   5.0  0.00  0.00  0.00  0.00 -0.06  0.00  0.00  0.00  0.00 57.21  1.00  67.1  1.17   0.0  1.00  1.00  1.00
 2019 202    33    33  26.4 -26.4 0.196   4.7  0.00  0.00  0.00  0.00 -0.06  0.00  0.00  0.00  0.00 50.52  1.00  63.2  1.25   0.0  1.00  1.00  1.00
 2019 203    34    34  25.7 -25.7 0.203   4.6  0.00  0.00  0.00  0.00 -0.06  0.00  0.00  0.00  0.00 54.85  1.00  63.7  1.16   0.0  1.00  1.00  1.00
 2019 204    35    35  26.8 -26.8 0.211   4.8  0.00  0.00  0.00  0.00 -0.06  0.00  0.00  0.00  0.00 46.90  1.00  62.8  1.34   0.0  1.00  1.00  1.00
 2019 205    36    36  27.7 -27.7 0.219   4.5  0.00  0.00  0.00  0.00 -0.06  0.00  0.00  0.00  0.00 46.54  1.00  61.6  1.32   0.0  1.00  1.00  1.00
 2019 206    37    37  24.8 -24.8 0.226   4.2  0.00  0.01  0.00  0.00 -0.06  0.00  0.00  0.00  0.00 51.91  1.00  67.0  1.29   0.0  1.00  1.00  1.00
 2019 207    38    38  25.8 -25.8 0.235   5.0  0.00  0.00  0.00  0.00 -0.06  0.00  0.00  0.00  0.00 50.58  1.00  65.4  1.29   0.0  1.00  1.00  1.00
 2019 208    39    39  25.9 -25.9 0.243   4.8  0.00  0.00  0.00  0.00 -0.06  0.00  0.00  0.00  0.00 44.70  1.00  63.7  1.43   0.0  1.00  1.00  1.00
 2019 209    40    40  26.1 -26.1 0.251   4.8  0.00  0.00  0.00  0.00 -0.06  0.00  0.00  0.00  0.00 39.85  1.00  62.0  1.56   0.0  1.00  1.00  1.00
 2019 210    41    41  26.2 -26.2 0.259   4.7  0.00  0.00  0.00  0.00 -0.06  0.00  0.00  0.00  0.00 38.68  1.00  60.4  1.56   0.0  1.00  1.00  1.00
 2019 211    42    42  26.5 -26.5 0.266   4.6  0.00  0.00  0.00  0.00 -0.06  0.00  0.00  0.04  0.00 37.96  1.00  59.0  1.55   0.0  1.00  1.00  1.00
 2019 212    43    43  26.2 -26.2 0.273   4.6  0.00  0.00  0.00  0.00 -0.06  0.00  0.00  0.10  0.00 34.01  1.00  57.5  1.69   0.0  1.00  1.00  1.00
 2019 213    44    44  25.8 -25.8 0.279   4.6  0.00  0.00  0.00  0.00 -0.06  0.00  0.00  0.16  0.00 34.76  1.00  63.3  1.82   0.0  1.00  1.00  1.00
 2019 214    45    45  25.1 -25.1 0.287   4.8  0.00  0.00  0.00  0.00 -0.06  0.00  0.00  0.01  0.00 38.17  1.00  67.4  1.77   0.0  1.00  1.00  1.00
 2019 215    46    46  25.8 -25.8 0.296   5.0  0.00  0.00  0.00  0.00 -0.06  0.00  0.00  0.00  0.00 36.11  1.00  65.2  1.81   0.0  1.00  1.00  1.00
 2019 216    47    47  26.0 -26.0 0.304   4.8  0.00  0.00  0.00  0.00 -0.06  0.00  0.00  0.00  0.00 30.66  1.00  62.9  2.05   0.0  1.00  1.00  1.00
 2019 217    48    48  25.8 -25.8 0.311   4.7  0.00  0.00  0.00  0.00 -0.06  0.00  0.00  0.07  0.00 39.01  1.00  77.5  1.99   0.0  1.00  1.00  1.00
 2019 218    49    49  25.8 -25.8 0.319   4.8  0.00  0.00  0.00  0.00 -0.06  0.00  0.00  0.00  0.00 41.36  1.00  82.9  2.01   0.0  1.00  1.00  1.00
 2019 219    50    50  24.2 -24.2 0.327   4.8  0.00  0.06  0.00  0.00 -0.06  0.00  0.00  0.00  0.00 45.90  1.00  87.8  1.91   0.0  1.00  1.00  1.00
 2019 220    51    51  24.7 -24.7 0.336   5.0  0.00  0.02  0.00  0.00 -0.06  0.00  0.00  0.00  0.00 42.13  1.00  85.7  2.04   0.0  1.00  1.00  1.00
 2019 221    52    52  25.6 -25.6 0.344   5.0  0.00  0.00  0.00  0.00 -0.06  0.00  0.00  0.00  0.00 37.49  1.00  83.8  2.24   0.0  1.00  1.00  1.00
 2019 222    53    53  26.4 -26.4 0.352   4.8  0.00  0.00  0.00  0.00 -0.06  0.00  0.00  0.00  0.00 34.18  1.00  81.0  2.37   0.0  1.00  1.00  1.00
 2019 223    54    54  26.5 -26.5 0.360   4.6  0.00  0.00  0.00  0.00 -0.06  0.00  0.00  0.00  0.00 37.57  1.00  84.7  2.25   0.0  1.00  1.00  1.00
 2019 224    55    55  24.9 -24.9 0.368   4.6  0.00  0.01  0.00  0.00 -0.06  0.00  0.00  0.00  0.00 35.49  1.00  82.7  2.33   0.0  1.00  1.00  1.00
 2019 225    56    56  26.2 -26.2 0.376   5.0  0.00  0.00  0.00  0.00 -0.06  0.00  0.00  0.00  0.00 32.42  1.00  81.4  2.51   0.0  1.00  1.00  1.00
 2019 226    57    57  26.5 -26.5 0.384   4.7  0.00  0.00  0.00  0.00 -0.06  0.00  0.00  0.00  0.00 30.02  1.00  78.3  2.61   0.0  1.00  1.00  1.00
 2019 227    58    58  25.3 -25.3 0.392   4.6  0.00  0.00  0.00  0.00 -0.06  0.00  0.00  0.00  0.00 30.73  1.00  77.3  2.52   0.0  1.00  1.00  1.00
 2019 228    59    59  25.3 -25.3 0.400   4.9  0.00  0.00  0.00  0.00 -0.06  0.00  0.00  0.00  0.00 30.75  1.00  76.0  2.47   0.0  1.00  1.00  1.00
 2019 229    60    60  26.4 -26.4 0.408   4.9  0.00  0.00  0.00  0.00 -0.06  0.00  0.00  0.00  0.00 27.48  1.00  73.0  2.66   0.0  1.00  1.00  1.00
 2019 230    61    61  25.7 -25.7 0.415   4.6  0.00  0.00  0.00  0.00 -0.06  0.00  0.00  0.07  0.00 35.83  1.00  93.5  2.61   0.0  1.00  1.00  1.00
 2019 231    62    62  25.3 -25.3 0.423   4.8  0.00  0.00  0.00  0.00 -0.06  0.00  0.00  0.00  0.00 36.37  1.00  92.3  2.54   0.0  1.00  1.00  1.00
 2019 232    63    63  26.8 -26.8 0.432   4.9  0.00  0.00  0.00  0.00 -0.06  0.00  0.00  0.00  0.00 32.07  1.00  89.4  2.79   0.0  1.00  1.00  1.00
 2019 233    64    64  26.4 -26.4 0.439   4.5  0.00  0.00  0.00  0.00 -0.06  0.00  0.00  0.00  0.00 40.01  1.00 106.7  2.67   0.0  1.00  1.00  1.00
 2019 234    65    65  25.8 -25.8 0.447   4.6  0.00  0.00  0.00  0.00 -0.06  0.00  0.00  0.00  0.00 35.85  1.00 105.4  2.94   0.0  1.00  1.00  1.00
 2019 235    66    66  25.6 -25.6 0.455   4.8  0.00  0.00  0.00  0.00 -0.06  0.00  0.00  0.00  0.00 48.36  1.00 120.8  2.50   0.0  1.00  1.00  1.00
 2019 236    67    67  25.5 -25.5 0.463   4.8  0.00  0.00  0.00  0.00 -0.06  0.00  0.00  0.00  0.00 43.77  1.00 117.8  2.69   0.0  1.00  1.00  1.00
 2019 237    68    68  25.6 -25.6 0.471   4.8  0.00  0.00  0.00  0.00 -0.06  0.00  0.00  0.00  0.00 37.63  1.00 116.3  3.09   0.0  1.00  1.00  1.00
 2019 238    69    69  25.9 -25.9 0.479   4.8  0.00  0.00  0.00  0.00 -0.06  0.00  0.00  0.00  0.00 35.02  1.00 108.4  3.10   0.0  1.00  1.00  1.00
 2019 239    70    70  24.7 -24.7 0.487   4.7  0.00  0.02  0.00  0.00 -0.06  0.00  0.00  0.00  0.00 38.49  1.00 109.7  2.85   0.0  1.00  1.00  1.00
 2019 240    71    71  26.3 -26.3 0.496   5.0  0.00  0.00  0.00  0.00 -0.06  0.00  0.00  0.00  0.00 36.93  1.00 110.3  2.99   0.0  1.00  1.00  1.00
 2019 241    72    72  26.9 -26.9 0.504   4.6  0.00  0.00  0.00  0.00 -0.06  0.00  0.00  0.00  0.00 32.44  1.00 110.7  3.41   0.0  1.00  1.00  1.00
 2019 242    73    73  26.9 -26.9 0.511   4.5  0.00  0.00  0.00  0.00 -0.06  0.00  0.00  0.00  0.00 35.43  1.00 108.4  3.06   0.0  1.00  1.00  1.00
 2019 243    74    74  25.8 -25.8 0.519   4.5  0.00  0.00  0.00  0.00 -0.06  0.00  0.00  0.00  0.00 42.29  1.00 129.1  3.05   0.0  1.00  1.00  1.00
 2019 244    75    75  26.2 -26.2 0.527   4.8  0.00  0.00  0.00  0.00 -0.06  0.00  0.00  0.00  0.00 33.55  1.00 117.5  3.50   0.0  1.00  1.00  1.00
 2019 245    76    76  26.1 -26.1 0.534   4.7  0.00  0.00  0.00  0.00 -0.06  0.00  0.00  0.00  0.00 35.61  1.00 115.5  3.24   0.0  1.00  1.00  1.00
 2019 246    77    77  27.0 -27.0 0.542   4.7  0.00  0.00  0.00  0.00 -0.06  0.00  0.00  0.00  0.00 34.79  1.00 116.8  3.36   0.0  1.00  1.00  1.00
 2019 247    78    78  27.1 -27.1 0.550   4.4  0.00  0.00  0.00  0.00 -0.06  0.00  0.00  0.00  0.00 38.11  1.00 127.7  3.35   0.0  1.00  1.00  1.00
 2019 248    79    79  26.0 -26.0 0.557   4.4  0.00  0.00  0.00  0.00 -0.06  0.00  0.00  0.00  0.00 43.03  1.00 147.0  3.42   0.0  1.00  1.00  1.00
 2019 249    80    80  26.9 -26.9 0.565   4.7  0.00  0.00  0.00  0.00 -0.06  0.00  0.00  0.00  0.00 38.44  1.00 137.1  3.57   0.0  1.00  1.00  1.00
 2019 250    81    81  27.0 -27.0 0.573   4.5  0.00  0.00  0.00  0.00 -0.06  0.00  0.00  0.00  0.00 38.82  1.00 135.5  3.49   0.0  1.00  1.00  1.00
 2019 251    82    82  26.0 -26.0 0.580   4.4  0.00  0.00  0.00  0.00 -0.06  0.00  0.00  0.00  0.00 40.81  1.00 131.0  3.21   0.0  1.00  1.00  1.00
 2019 252    83    83  25.5 -25.5 0.588   4.7  0.00  0.00  0.00  0.00 -0.06  0.00  0.00  0.00  0.00 40.63  1.00 135.7  3.34   0.0  1.00  1.00  1.00
 2019 253    84    84  26.1 -26.1 0.596   4.8  0.00  0.00  0.00  0.00 -0.06  0.00  0.00  0.00  0.00 44.28  1.00 153.6  3.47   0.0  1.00  1.00  1.00
 2019 254    85    85  26.0 -26.0 0.604   4.7  0.00  0.00  0.00  0.00 -0.06  0.00  0.00  0.00  0.00 43.98  1.00 153.0  3.48   0.0  1.00  1.00  1.00
 2019 255    86    86  26.8 -26.8 0.612   4.7  0.00  0.00  0.00  0.00 -0.06  0.00  0.00  0.00  0.00 41.06  1.00 144.4  3.52   0.0  1.00  1.00  1.00
 2019 256    87    87  27.6 -27.6 0.620   4.5  0.00  0.00  0.00  0.00 -0.06  0.00  0.00  0.00  0.00 40.35  1.00 140.8  3.49   0.0  1.00  1.00  1.00
 2019 257    88    88  27.0 -27.0 0.627   4.3  0.00  0.00  0.00  0.00 -0.06  0.00  0.00  0.00  0.00 40.23  1.00 140.6  3.49   0.0  1.00  1.00  1.00
 2019 258    89    89  26.6 -26.6 0.634   4.4  0.00  0.00  0.00  0.00 -0.06  0.00  0.00  0.00  0.00 37.54  1.00 137.2  3.65   0.0  1.00  1.00  1.00
 2019 259    90    90  25.6 -25.6 0.642   4.5  0.00  0.00  0.00  0.00 -0.06  0.00  0.00  0.00  0.00 49.58  1.00 157.9  3.18   0.0  1.00  1.00  1.00
 2019 260    91    91  26.7 -26.7 0.650   4.8  0.00  0.00  0.00  0.00 -0.06  0.00  0.00  0.00  0.00 44.19  1.00 150.8  3.41   0.0  1.00  1.00  1.00
 2019 261    92    92  27.1 -27.1 0.658   4.5  0.00  0.00  0.00  0.00 -0.06  0.00  0.00  0.00  0.00 44.04  1.00 166.6  3.78   0.0  1.00  1.00  1.00
 2019 262    93    93  25.5 -25.5 0.665   4.4  0.00  0.00  0.00  0.00 -0.06  0.00  0.00  0.00  0.00 48.37  1.00 158.5  3.28   0.0  1.00  1.00  1.00
 2019 263    94    94  26.8 -26.8 0.673   4.8  0.00  0.00  0.00  0.00 -0.06  0.00  0.00  0.00  0.00 33.89  1.00 142.5  4.21   0.0  1.00  1.00  1.00
 2019 264    95    95  26.6 -26.6 0.681   4.5  0.00  0.00  0.00  0.00 -0.06  0.00  0.00  0.00  0.00 35.72  1.00 145.5  4.07   0.0  1.00  1.00  1.00
 2019 265    96    96  27.0 -27.0 0.688   4.5  0.00  0.00  0.00  0.00 -0.06  0.00  0.00  0.00  0.00 33.99  1.00 143.2  4.21   0.0  1.00  1.00  1.00
 2019 266    97    97  27.8 -27.8 0.696   4.4  0.00  0.00  0.00  0.00 -0.06  0.00  0.00  0.00  0.00 39.07  1.00 147.5  3.78   0.0  1.00  1.00  1.00
 2019 267    98    98  27.5 -27.5 0.703   4.2  0.00  0.00  0.00  0.00 -0.06  0.00  0.00  0.00  0.00 42.36  1.00 161.3  3.81   0.0  1.00  1.00  1.00
 2019 268    99    99  27.7 -27.7 0.710   4.3  0.00  0.00  0.00  0.00 -0.06  0.00  0.00  0.00  0.00 40.38  1.00 168.4  4.17   0.0  1.00  1.00  1.00
 2019 269   100   100  26.5 -26.5 0.717   4.2  0.00  0.00  0.00  0.00 -0.06  0.00  0.00  0.00  0.00 43.95  1.00 168.1  3.82   0.0  1.00  1.00  1.00
 2019 270   101   101  25.9 -25.9 0.725   4.6  0.00  0.00  0.00  0.00 -0.06  0.00  0.00  0.00  0.00 49.52  1.00 176.2  3.56   0.0  1.00  1.00  1.00
 2019 271   102   102  26.9 -26.9 0.733   4.7  0.00  0.00  0.00  0.00 -0.06  0.00  0.00  0.00  0.00 43.10  1.00 177.5  4.12   0.0  1.00  1.00  1.00
 2019 272   103   103  27.1 -27.1 0.740   4.5  0.00  0.00  0.00  0.00 -0.06  0.00  0.00  0.00  0.00 44.63  1.00 170.9  3.83   0.0  1.00  1.00  1.00
 2019 273   104   104  27.4 -27.4 0.748   4.4  0.00  0.00  0.00  0.00 -0.06  0.00  0.00  0.00  0.00 44.97  1.00 165.1  3.67   0.0  1.00  1.00  1.00
 2019 274   105   105  27.3 -27.3 0.755   4.3  0.00  0.00  0.00  0.00 -0.06  0.00  0.00  0.00  0.00 45.39  1.00 171.2  3.77   0.0  1.00  1.00  1.00
 2019 275   106   106  26.1 -26.1 0.762   4.3  0.00  0.00  0.00  0.00 -0.06  0.00  0.00  0.00  0.00 51.39  1.00 179.1  3.48   0.0  1.00  1.00  1.00
 2019 276   107   107  26.0 -26.0 0.770   4.7  0.00  0.00  0.00  0.00 -0.06  0.00  0.00  0.00  0.00 54.38  1.00 190.6  3.50   0.0  1.00  1.00  1.00
 2019 277   108   108  26.7 -26.7 0.778   4.7  0.00  0.00  0.00  0.00 -0.06  0.00  0.00  0.00  0.00 49.90  1.00 184.8  3.70   0.0  1.00  1.00  1.00
 2019 278   109   109  26.9 -26.9 0.786   4.5  0.00  0.00  0.00  0.00 -0.06  0.00  0.00  0.00  0.00 43.62  1.00 163.4  3.75   0.0  1.00  1.00  1.00
 2019 279   110   110  25.7 -25.7 0.793   4.5  0.00  0.00  0.00  0.00 -0.06  0.00  0.00  0.00  0.00 47.12  1.00 164.5  3.49   0.0  1.00  1.00  1.00
 2019 280   111   111  25.6 -25.6 0.801   4.8  0.00  0.00  0.00  0.00 -0.06  0.00  0.00  0.00  0.00 53.48  1.00 172.1  3.22   0.0  1.00  1.00  1.00
 2019 281   112   112  25.8 -25.8 0.810   4.8  0.00  0.00  0.00  0.00 -0.06  0.00  0.00  0.00  0.00 50.59  1.00 173.0  3.42   0.0  1.00  1.00  1.00
 2019 282   113   113  26.9 -26.9 0.818   4.8  0.00  0.00  0.00  0.00 -0.06  0.00  0.00  0.00  0.00 52.24  1.00 168.8  3.23   0.0  1.00  1.00  1.00
 2019 283   114   114  27.0 -27.0 0.825   4.5  0.00  0.00  0.00  0.00 -0.06  0.00  0.00  0.00  0.00 48.54  1.00 167.1  3.44   0.0  1.00  1.00  1.00
 2019 284   115   115  26.6 -26.6 0.833   4.4  0.00  0.00  0.00  0.00 -0.06  0.00  0.00  0.00  0.00 53.51  1.00 191.1  3.57   0.0  1.00  1.00  1.00
 2019 285   116   116  26.8 -26.8 0.840   4.5  0.00  0.00  0.00  0.00 -0.06  0.00  0.00  0.00  0.00 51.64  1.00 188.4  3.65   0.0  1.00  1.00  1.00
 2019 286   117   117  27.0 -27.0 0.848   4.5  0.00  0.00  0.00  0.00 -0.06  0.00  0.00  0.00  0.00 49.61  1.00 176.5  3.56   0.0  1.00  1.00  1.00
 2019 287   118   118  27.3 -27.3 0.855   4.4  0.00  0.00  0.00  0.00 -0.06  0.00  0.00  0.00  0.00 50.64  1.00 188.1  3.71   0.0  1.00  1.00  1.00
 2019 288   119   119  27.8 -27.8 0.862   4.3  0.00  0.00  0.00  0.00 -0.06  0.00  0.00  0.00  0.00 52.83  1.00 179.4  3.40   0.0  1.00  1.00  1.00
 2019 289   120   120  25.5 -25.5 0.870   4.2  0.00  0.00  0.00  0.00 -0.06  0.00  0.00  0.00  0.00 48.98  1.00 180.3  3.68   0.0  1.00  1.00  1.00
 2019 290   121   121  27.3 -27.3 0.878   4.9  0.00  0.00  0.00  0.00 -0.06  0.00  0.00  0.00  0.00 55.60  1.00 176.0  3.17   0.0  1.00  1.00  1.00
 2019 291   122   122  26.2 -26.2 0.885   4.3  0.00  0.00  0.00  0.00 -0.06  0.00  0.00  0.00  0.00 56.69  1.00 191.6  3.38   0.0  1.00  1.00  1.00
 2019 292   123   123  26.6 -26.6 0.893   4.7  0.00  0.00  0.00  0.00 -0.06  0.00  0.00  0.00  0.00 55.63  1.00 184.0  3.31   0.0  1.00  1.00  1.00
 2019 293   124   124  27.1 -27.1 0.901   4.5  0.00  0.00  0.00  0.00 -0.06  0.00  0.00  0.00  0.00 52.54  1.00 176.5  3.36   0.0  1.00  1.00  1.00
 2019 294   125   125  27.0 -27.0 0.908   4.4  0.00  0.00  0.00  0.00 -0.06  0.00  0.00  0.00  0.00 50.37  1.00 181.5  3.60   0.0  1.00  1.00  1.00
 2019 295   126   126  27.3 -27.3 0.915   4.4  0.00  0.00  0.00  0.00 -0.06  0.00  0.00  0.00  0.00 53.32  1.00 191.4  3.59   0.0  1.00  1.00  1.00
 2019 296   127   127  27.2 -27.2 0.923   4.3  0.00  0.00  0.00  0.00 -0.06  0.00  0.00  0.00  0.00 55.56  1.00 191.5  3.45   0.0  1.00  1.00  1.00
 2019 297   128   128  25.8 -25.8 0.930   4.4  0.00  0.00  0.00  0.00 -0.06  0.00  0.00  0.00  0.00 54.23  1.00 184.3  3.40   0.0  1.00  1.00  1.00
 2019 298   129   129  27.8 -27.8 0.938   4.8  0.00  0.00  0.00  0.00 -0.06  0.00  0.00  0.00  0.00 52.16  1.00 181.3  3.47   0.0  1.00  1.00  1.00
 2019 299   130   130  27.3 -27.3 0.945   4.2  0.00  0.00  0.00  0.00 -0.06  0.00  0.00  0.00  0.00 54.56  1.00 191.4  3.51   0.0  1.00  1.00  1.00
 2019 300   131   131  25.8 -25.8 0.952   4.3  0.00  0.00  0.00  0.00 -0.06  0.00  0.00  0.00  0.00 63.01  1.00 192.0  3.05   0.0  1.00  1.00  1.00
 2019 301   132   132  25.7 -25.7 0.961   4.8  0.00  0.00  0.00  0.00 -0.06  0.00  0.00  0.00  0.00 57.52  1.00 187.0  3.25   0.0  1.00  1.00  1.00
 2019 302   133   133  27.5 -27.5 0.969   4.8  0.00  0.00  0.00  0.00 -0.06  0.00  0.00  0.00  0.00 47.67  1.00 175.4  3.68   0.0  1.00  1.00  1.00
 2019 303   134   134  28.1 -28.1 0.976   4.3  0.00  0.00  0.00  0.00 -0.06  0.00  0.00  0.00  0.00 45.64  1.00 167.8  3.68   0.0  1.00  1.00  1.00
 2019 304   135   135  27.1 -27.1 0.983   4.1  0.00  0.00  0.00  0.00 -0.06  0.00  0.00  0.00  0.00 53.38  1.00 191.2  3.58   0.0  1.00  1.00  1.00
 2019 305   136   136  27.6 -27.6     1   4.4  0.00  0.00  0.00  0.00 -0.06  0.00  0.00  0.00  0.00 51.38  1.00 182.8  3.56   0.0  1.00  1.00  1.00
 2019 306   137   137  27.0 -27.0     1   4.3  0.00  0.00  0.00  0.00 -0.06  0.00  0.00  0.00  0.00 54.20  1.00 191.2  3.53   0.0  1.00  1.00  1.00
 2019 307   138   138  27.6 -27.6 1.008  11.0  0.00  0.00  0.00  0.00 -0.06  0.00  0.00  0.00  0.00 48.70  1.00 165.5  3.40   0.0  1.00  1.00  1.00
 2019 308   139   139  27.7 -27.7 1.011   4.2  0.00  0.00  0.00  0.00 -0.06  0.00  0.00  0.00  0.00 46.67  1.00 156.4  3.35   0.0  1.00  1.00  1.00
 2019 309   140   140  28.4 -28.4 1.015   4.2  0.00  0.00  0.00  0.00 -0.06  0.00  0.00  0.00  0.00 43.85  1.00 151.8  3.46   0.0  1.00  1.00  1.00
 2019 310   141   141  28.2 -28.2 1.018   4.0  0.00  0.00  0.00  0.00 -0.06  0.00  0.00  0.00  0.00 43.96  1.00 147.3  3.35   0.0  1.00  1.00  1.00
 2019 311   142   142  28.0 -28.0 1.021   4.1  0.00  0.00  0.00  0.00 -0.06  0.00  0.00  0.00  0.00 42.88  1.00 142.8  3.33   0.0  1.00  1.00  1.00
 2019 312   143   143  28.4 -28.4 1.025   4.2  0.00  0.00  0.00  0.00 -0.06  0.00  0.00  0.00  0.00 40.25  1.00 138.2  3.43   0.0  1.00  1.00  1.00
 2019 313   144   144  28.5 -28.5 1.028   4.0  0.00  0.00  0.00  0.00 -0.06  0.00  0.00  0.00  0.00 39.69  1.00 133.9  3.37   0.0  1.00  1.00  1.00
 2019 314   145   145  27.5 -27.5 1.031   4.0  0.00  0.00  0.00  0.00 -0.06  0.00  0.00  0.06  0.00 45.46  1.00 141.9  3.12   0.0  1.00  1.00  1.00
 2019 315   146   146  27.8 -27.8 1.035   4.3  0.00  0.00  0.00  0.00 -0.06  0.00  0.00  0.00  0.00 45.48  1.00 139.5  3.07   0.0  1.00  1.00  1.00
 2019 316   147   147  26.8 -26.8 1.038   4.2  0.00  0.00  0.00  0.00 -0.06  0.00  0.00  0.00  0.00 50.33  1.00 135.6  2.70   0.0  1.00  1.00  1.00
 2019 317   148   148  27.5 -27.5 1.042   4.5  0.00  0.00  0.00  0.00 -0.06  0.00  0.00  0.00  0.00 41.30  1.00 131.7  3.19   0.0  1.00  1.00  1.00
 2019 318   149   149  27.8 -27.8 1.045   4.3  0.00  0.00  0.00  0.00 -0.06  0.00  0.00  0.00  0.00 40.15  1.00 127.2  3.17   0.0  1.00  1.00  1.00
 2019 319   150   150  27.4 -27.4 1.048   4.2  0.00  0.00  0.00  0.00 -0.06  0.00  0.00  0.07  0.00 38.44  1.00 122.8  3.19   0.0  1.00  1.00  1.00
 2019 320   151   151  27.9 -27.9 1.051   4.3  0.00  0.00  0.00  0.00 -0.06  0.00  0.00  0.14  0.00 38.52  1.00 118.6  3.08   0.0  1.00  1.00  1.00
 2019 321   152   152  28.3 -28.3 1.054   4.2  0.00  0.00  0.00  0.00 -0.06  0.00  0.00  0.20  0.00 36.98  1.00 114.5  3.10   0.0  1.00  1.00  1.00
 2019 322   153   153  28.5 -28.5 1.057   4.1  0.00  0.00  0.00  0.00 -0.06  0.00  0.00  0.26  0.00 43.92  1.00 137.1  3.12   0.0  1.00  1.00  1.00
 2019 323   154   154  28.6 -28.6 1.060   4.0  0.00  0.00  0.00  0.00 -0.06  0.00  0.00  0.00  0.00 44.27  1.00 132.5  2.99   0.0  1.00  1.00  1.00
 2019 324   155   155  28.0 -28.0 1.063   4.0  0.00  0.00  0.00  0.00 -0.06  0.00  0.00  0.00  0.00 48.14  1.00 129.9  2.70   0.0  1.00  1.00  1.00
 2019 325   156   156  27.3 -27.3 1.067   4.2  0.00  0.00  0.00  0.00 -0.06  0.00  0.00  0.00  0.00 49.35  1.00 130.0  2.63   0.0  1.00  1.00  1.00
 2019 326   157   157  28.4 -28.4 1.070   4.3  0.00  0.00  0.00  0.00 -0.06  0.00  0.00  0.00  0.00 47.17  1.00 125.7  2.66   0.0  1.00  1.00  1.00
 2019 327   158   158  28.3 -28.3 1.073   4.0  0.00  0.00  0.00  0.00 -0.06  0.00  0.00  0.00  0.00 43.76  1.00 121.4  2.77   0.0  1.00  1.00  1.00
 2019 328   159   159  28.2 -28.2 1.077   4.0  0.00  0.00  0.00  0.00 -0.06  0.00  0.00  0.01  0.00 44.38  1.00 117.4  2.65   0.0  1.00  1.00  1.00
 2019 329   160   160  28.4 -28.4 1.080   4.1  0.00  0.00  0.00  0.00 -0.06  0.00  0.00  0.08  0.00 42.00  1.00 113.5  2.70   0.0  1.00  1.00  1.00
 2019 330   161   161  28.2 -28.2 1.083   4.0  0.00  0.00  0.00  0.00 -0.06  0.00  0.00  0.14  0.00 40.94  1.00 109.8  2.68   0.0  1.00  1.00  1.00
 2019 331   162   162  28.6 -28.6 1.085   4.1  0.00  0.00  0.00  0.00 -0.06  0.00  0.00  0.20  0.00 37.29  1.00 105.9  2.84   0.0  1.00  1.00  1.00
 2019 332   163   163  27.8 -27.8 1.088   4.0  0.00  0.00  0.00  0.00 -0.06  0.00  0.00  0.26  0.00 36.66  1.00 102.3  2.79   0.0  1.00  1.00  1.00
 2019 333   164   164  28.1 -28.1 1.090   4.2  0.00  0.00  0.00  0.00 -0.06  0.00  0.00  0.31  0.00 46.73  1.00 124.0  2.65   0.0  1.00  1.00  1.00
 2019 334   165   165  28.0 -28.0 1.093   4.1  0.00  0.00  0.00  0.00 -0.06  0.00  0.00  0.00  0.00 43.33  1.00 119.2  2.75   0.0  1.00  1.00  1.00
 2019 335   166   166  27.2 -27.2 1.097   4.1  0.00  0.00  0.00  0.00 -0.06  0.00  0.00  0.00  0.00 47.61  1.00 115.3  2.42   0.0  1.00  1.00  1.00
 2019 336   167   167  27.8 -27.8 1.100   4.4  0.00  0.00  0.00  0.00 -0.06  0.00  0.00  0.02  0.00 44.94  1.00 111.7  2.48   0.0  1.00  1.00  1.00
 2019 337   168   168  27.6 -27.6 1.103   4.2  0.00  0.00  0.00  0.00 -0.06  0.00  0.00  0.09  0.00 44.37  1.00 108.0  2.43   0.0  1.00  1.00  1.00
 2019 338   169   169  27.7 -27.7 1.106   4.3  0.00  0.00  0.00  0.00 -0.06  0.00  0.00  0.15  0.00 40.54  1.00 104.4  2.57   0.0  1.00  1.00  1.00
 2019 339   170   170  27.5 -27.5 1.109   4.2  0.00  0.00  0.00  0.00 -0.06  0.00  0.00  0.21  0.00 41.02  1.00 100.9  2.46   0.0  1.00  1.00  1.00
 2019 340   171   171  27.8 -27.8 1.112   4.3  0.00  0.00  0.00  0.00 -0.06  0.00  0.00  0.26  0.00 43.47  1.00  97.7  2.25   0.0  1.00  1.00  1.00
 2019 341   172   172  27.6 -27.6 1.114   4.2  0.00  0.00  0.00  0.00 -0.06  0.00  0.00  0.31  0.00 38.90  1.00  95.1  2.44   0.0  1.00  1.00  1.00
 2019 342   173   173  27.7 -27.7 1.116   4.3  0.00  0.00  0.02  0.00 -0.06  0.00  0.00  0.35  0.00 50.40  1.00 117.5  2.33   0.0  1.00  1.00  1.00
 2019 343   174   174  28.2 -28.2 1.120   4.2  0.00  0.00  0.00  0.00 -0.06  0.00  0.00  0.00  0.00 44.97  1.00 112.8  2.51   0.0  1.00  1.00  1.00
 2019 344   175   175  27.4 -27.4 1.123   4.1  0.00  0.00  0.00  0.00 -0.06  0.00  0.00  0.00  0.00 46.15  1.00 108.9  2.36   0.0  1.00  1.00  1.00
 2019 345   176   176  26.7 -26.7 1.127   4.3  0.00  0.00  0.00  0.00 -0.06  0.00  0.00  0.05  0.00 42.88  1.00 105.1  2.45   0.0  1.00  1.00  1.00
 2019 346   177   177  26.9 -26.9 1.130   4.5  0.00  0.00  0.00  0.00 -0.06  0.00  0.00  0.12  0.00 43.09  1.00 101.6  2.36   0.0  1.00  1.00  1.00
 2019 347   178   178  27.6 -27.6 1.133   4.5  0.00  0.00  0.00  0.00 -0.06  0.00  0.00  0.17  0.00 39.35  1.00  98.0  2.49   0.0  1.00  1.00  1.00
 2019 348   179   179  26.9 -26.9 1.136   4.2  0.00  0.00  0.00  0.00 -0.06  0.00  0.00  0.23  0.00 42.20  1.00  94.9  2.25   0.0  1.00  1.00  1.00
 2019 349   180   180  26.7 -26.7 1.138   4.5  0.00  0.00  0.00  0.00 -0.06  0.00  0.00  0.28  0.00 39.29  1.00  91.7  2.33   0.0  1.00  1.00  1.00
 2019 350   181   181  27.2 -27.2 1.141   4.5  0.00  0.00  0.00  0.00 -0.06  0.00  0.00  0.33  0.00 38.27  1.00  89.1  2.33   0.0  1.00  1.00  1.00
 2019 351   182   182  27.5 -27.5 1.143   4.4  0.00  0.00  0.05  0.00 -0.06  0.00  0.00  0.37  0.00 49.81  1.00 111.5  2.24   0.0  1.00  1.00  1.00
 2019 352   183   183  28.0 -28.0 1.146   4.3  0.00  0.00  0.00  0.00 -0.06  0.00  0.00  0.02  0.00 53.19  1.00 107.5  2.02   0.0  1.00  1.00  1.00
 2019 353   184   184  27.6 -27.6 1.150   4.2  0.00  0.00  0.00  0.00 -0.06  0.00  0.00  0.00  0.00 49.51  1.00 103.3  2.09   0.0  1.00  1.00  1.00
 2019 354   185   185  27.2 -27.2 1.153   4.3  0.00  0.00  0.00  0.00 -0.06  0.00  0.00  0.06  0.00 44.70  1.00  99.7  2.23   0.0  1.00  1.00  1.00
 2019 355   186   186  26.5 -26.5 1.156   4.4  0.00  0.00  0.00  0.00 -0.06  0.00  0.00  0.12  0.00 43.64  1.00  96.4  2.21   0.0  1.00  1.00  1.00
 2019 356   187   187  25.5 -25.5 1.159   4.6  0.00  0.00  0.00  0.00 -0.06  0.00  0.00  0.18  0.00 40.18  1.00  93.0  2.31   0.0  1.00  1.00  1.00
 2019 357   188   188  26.4 -26.4 1.162   4.8  0.00  0.00  0.00  0.00 -0.06  0.00  0.00  0.23  0.00 40.02  1.00  89.8  2.24   0.0  1.00  1.00  1.00
 2019 358   189   189  26.7 -26.7 1.165   4.6  0.00  0.00  0.00  0.00 -0.06  0.00  0.00  0.29  0.00 38.05  1.00  86.6  2.28   0.0  1.00  1.00  1.00
 2019 359   190   190  26.6 -26.6 1.167   4.5  0.00  0.00  0.01  0.00 -0.06  0.00  0.00  0.34  0.00 37.32  1.00  83.6  2.24   0.0  1.00  1.00  1.00
 2019 360   191   191  26.9 -26.9 1.170   4.5  0.00  0.00  0.07  0.00 -0.06  0.00  0.00  0.38  0.00 45.36  1.00 105.6  2.33   0.0  1.00  1.00  1.00
 2019 361   192   192  26.7 -26.7 1.173   4.5  0.00  0.00  0.00  0.00 -0.06  0.00  0.00  0.04  0.00 47.23  1.00 101.1  2.14   0.0  1.00  1.00  1.00
 2019 362   193   193  26.5 -26.5 1.177   4.5  0.00  0.00  0.00  0.00 -0.06  0.00  0.00  0.03  0.00 47.31  1.00  97.6  2.06   0.0  1.00  1.00  1.00
 2019 363   194   194  25.7 -25.7 1.180   4.6  0.00  0.00  0.00  0.00 -0.06  0.00  0.00  0.10  0.00 43.37  1.00  94.3  2.17   0.0  1.00  1.00  1.00
 2019 364   195   195  26.1 -26.1 1.184   4.8  0.00  0.00  0.00  0.00 -0.06  0.00  0.00  0.15  0.00 41.39  1.00  91.9  2.22   0.0  1.00  1.00  1.00
 2019 365   196   196  26.4 -26.4 1.187   4.7  0.00  0.00  0.00  0.00 -0.06  0.00  0.00  0.19  0.00 45.98  1.00  88.8  1.93   0.0  1.00  1.00  1.00
 2020   1   197   197  26.2 -26.2 1.189   4.6  0.00  0.00  0.00  0.00 -0.06  0.00  0.00  0.24  0.00 39.96  1.00  85.7  2.15   0.0  1.00  1.00  1.00
 2020   2   198   198  25.2 -25.2 1.192   4.7  0.00  0.00  0.00  0.00 -0.06  0.00  0.00  0.29  0.00 41.25  1.00  82.7  2.01   0.0  1.00  1.00  1.00
 2020   3   199   199  23.6 -23.6 1.195   5.0  0.00  0.09  0.01  0.00 -0.06  0.00  0.03  0.34  0.00 38.46  1.00  79.7  2.07   0.0  1.00  1.00  1.00
 2020   4   200   200  25.0 -25.0 1.197   5.0  0.00  0.00  0.08  0.00 -0.06  0.00  0.00  0.39  0.00 42.43  1.00  77.6  1.83   0.0  1.00  1.00  1.00
 2020   5   201   201  25.0 -25.0 1.200   5.0  0.00  0.00  0.13  0.00 -0.06  0.00  0.00  0.42  0.00 54.41  1.00 101.4  1.86   0.0  1.00  1.00  1.00
 2020   6   202   202  26.2 -26.2 1.204   5.0  0.00  0.00  0.00  0.00 -0.06  0.00  0.00  0.06  0.00 47.48  1.00  97.1  2.05   0.0  1.00  1.00  1.00
 2020   7   203   203  27.6 -27.6 1.207   4.7  0.00  0.00  0.00  0.00 -0.06  0.00  0.00  0.04  0.00 42.44  1.00  92.7  2.19   0.0  1.00  1.00  1.00
 2020   8   204   204  28.1 -28.1 1.210   4.3  0.00  0.00  0.00  0.00 -0.06  0.00  0.00  0.11  0.00 43.34  1.00  89.3  2.06   0.0  1.00  1.00  1.00
 2020   9   205   205  28.3 -28.3 1.213   4.1  0.00  0.00  0.00  0.00 -0.06  0.00  0.00  0.17  0.00 46.93  1.00  86.2  1.84   0.0  1.00  1.00  1.00
 2020  10   206   206  28.0 -28.0 1.216   4.1  0.00  0.00  0.00  0.00 -0.06  0.00  0.00  0.22  0.00 39.51  1.00  83.2  2.11   0.0  1.00  1.00  1.00
 2020  11   207   207  27.8 -27.8 1.218   4.1  0.00  0.00  0.00  0.00 -0.06  0.00  0.00  0.27  0.00 38.94  1.00  80.1  2.06   0.0  1.00  1.00  1.00
 2020  12   208   208  28.5 -28.5 1.220   4.2  0.00  0.00  0.00  0.00 -0.06  0.00  0.00  0.32  0.00 38.78  1.00  77.1  1.99   0.0  1.00  1.00  1.00
 2020  13   209   209  29.8 -29.8 1.223   4.0  0.00  0.00  0.06  0.00 -0.06  0.00  0.00  0.37  0.00 35.61  1.00  74.3  2.09   0.0  1.00  1.00  1.00
 2020  14   210   210  29.0 -29.0 1.224   3.6  0.00  0.00  0.13  0.00 -0.06  0.00  0.00  0.42  0.00 47.05  1.00  96.8  2.06   0.0  1.00  1.00  1.00
 2020  15   211   211  29.1 -29.1 1.227   3.9  0.00  0.00  0.00  0.00 -0.06  0.00  0.00  0.08  0.00 43.16  1.00  92.1  2.13   0.0  1.00  1.00  1.00
 2020  16   212   212  27.5 -27.5 1.230   3.8  0.00  0.00  0.00  0.00 -0.06  0.00  0.00  0.07  0.00 51.55  1.00  88.9  1.72   0.0  1.00  1.00  1.00
 2020  17   213   213  26.6 -26.6 1.233   4.3  0.00  0.00  0.00  0.00 -0.06  0.00  0.00  0.13  0.00 45.20  1.00  86.6  1.92   0.0  1.00  1.00  1.00
 2020  18   214   214  26.8 -26.8 1.236   4.5  0.00  0.00  0.00  0.00 -0.06  0.00  0.00  0.17  0.00 49.76  1.00  86.9  1.75   0.0  1.00  1.00  1.00
 2020  19   215   215  25.8 -25.8 1.239   4.5  0.00  0.00  0.00  0.00 -0.06  0.00  0.00  0.16  0.00 46.72  1.00  83.7  1.79   0.0  1.00  1.00  1.00
 2020  20   216   216  26.7 -26.7 1.242   4.8  0.00  0.00  0.00  0.00 -0.06  0.00  0.00  0.21  0.00 45.17  1.00  80.6  1.78   0.0  1.00  1.00  1.00
 2020  21   217   217  28.1 -28.1 1.245   4.5  0.00  0.00  0.00  0.00 -0.06  0.00  0.00  0.27  0.00 38.80  1.00  77.7  2.00   0.0  1.00  1.00  1.00
 2020  22   218   218  28.2 -28.2 1.247   4.1  0.00  0.00  0.00  0.00 -0.06  0.00  0.00  0.32  0.00 38.60  1.00  74.7  1.94   0.0  1.00  1.00  1.00
 2020  23   219   219  27.8 -27.8 1.250   4.1  0.00  0.00  0.06  0.00 -0.06  0.00  0.00  0.37  0.00 38.12  1.00  71.8  1.88   0.0  1.00  1.00  1.00
 2020  24   220   220  27.5 -27.5 1.252   4.2  0.00  0.00  0.13  0.00 -0.06  0.00  0.00  0.42  0.00 35.25  1.00  69.1  1.96   0.0  1.00  1.00  1.00
 2020  25   221   221  26.8 -26.8 1.253   4.3  0.00  0.00  0.20  0.00 -0.06  0.00  0.00  0.46  0.00 46.09  1.00  93.3  2.03   0.0  1.00  1.00  1.00
 2020  26   222   222  25.3 -25.3 1.257   4.5  0.00  0.00  0.00  0.00 -0.06  0.00  0.00  0.10  0.00 41.79  1.00  88.1  2.11   0.0  1.00  1.00  1.00
 2020  27   223   223  26.0 -26.0 1.260   4.9  0.00  0.00  0.00  0.00 -0.06  0.00  0.00  0.10  0.00 47.54  1.00  84.8  1.78   0.0  1.00  1.00  1.00
 2020  28   224   224  26.5 -26.5 1.264   4.7  0.00  0.00  0.00  0.00 -0.06  0.00  0.00  0.16  0.00 44.04  1.00  81.7  1.85   0.0  1.00  1.00  1.00
 2020  29   225   225  27.1 -27.1 1.267   4.6  0.00  0.00  0.00  0.00 -0.06  0.00  0.00  0.21  0.00 41.82  1.00  78.6  1.88   0.0  1.00  1.00  1.00
 2020  30   226   226  27.2 -27.2 1.269   4.4  0.00  0.00  0.00  0.00 -0.06  0.00  0.00  0.27  0.00 39.38  1.00  77.2  1.96   0.0  1.00  1.00  1.00
 2020  31   227   227  27.4 -27.4 1.272   4.4  0.00  0.00  0.00  0.00 -0.06  0.00  0.00  0.29  0.00 43.81  1.00  75.2  1.72   0.0  1.00  1.00  1.00
 2020  32   228   228  27.0 -27.0 1.274   4.3  0.00  0.00  0.00  0.00 -0.06  0.00  0.00  0.32  0.00 37.42  1.00  72.3  1.93   0.0  1.00  1.00  1.00
 2020  33   229   229  26.5 -26.5 1.276   4.4  0.00  0.00  0.05  0.00 -0.06  0.00  0.00  0.37  0.00 41.71  1.00  69.6  1.67   0.0  1.00  1.00  1.00
 2020  34   230   230  26.8 -26.8 1.279   4.6  0.00  0.00  0.12  0.00 -0.06  0.00  0.00  0.42  0.00 40.39  1.00  67.2  1.66   0.0  1.00  1.00  1.00
 2020  35   231   231  26.9 -26.9 1.281   4.5  0.00  0.00  0.18  0.00 -0.06  0.00  0.00  0.46  0.00 55.98  1.00  90.9  1.62   0.0  1.00  1.00  1.00
 2020  36   232   232  27.1 -27.1 1.284   4.5  0.00  0.00  0.00  0.00 -0.06  0.00  0.00  0.11  0.00 59.49  1.00  86.9  1.46   0.0  1.00  1.00  1.00
 2020  37   233   233  27.5 -27.5 1.287   4.4  0.00  0.00  0.00  0.00 -0.06  0.00  0.00  0.09  0.00 53.18  1.00  82.5  1.55   0.0  1.00  1.00  1.00
 2020  38   234   234  27.2 -27.2 1.290   4.3  0.00  0.00  0.00  0.00 -0.06  0.00  0.00  0.15  0.00 46.57  1.00  81.7  1.76   0.0  1.00  1.00  1.00
 2020  39   235   235  28.4 -28.4 1.293   4.4  0.00  0.00  0.00  0.00 -0.06  0.00  0.00  0.17  0.00 42.15  1.00  79.0  1.87   0.0  1.00  1.00  1.00
 2020  40   236   236  28.4 -28.4 1.296   4.0  0.00  0.00  0.00  0.00 -0.06  0.00  0.00  0.21  0.00 55.35  1.00  76.3  1.38   0.0  1.00  1.00  1.00
 2020  41   237   237  28.4 -28.4 1.298   4.0  0.00  0.00  0.00  0.00 -0.06  0.00  0.00  0.26  0.00 46.25  1.00  73.5  1.59   0.0  1.00  1.00  1.00
 2020  42   238   238  28.9 -28.9 1.300   4.0  0.00  0.00  0.00  0.00 -0.06  0.00  0.00  0.31  0.00 47.22  1.00  72.5  1.54   0.0  1.00  1.00  1.00
 2020  43   239   239  28.0 -28.0 1.302   3.9  0.00  0.00  0.00  0.00 -0.06  0.00  0.00  0.32  0.00 49.35  1.00  70.0  1.42   0.0  1.00  1.00  1.00
 2020  44   240   240  27.8 -27.8 1.305   4.2  0.00  0.00  0.06  0.00 -0.06  0.00  0.00  0.37  0.00 45.72  1.00  67.4  1.48   0.0  1.00  1.00  1.00
 2020  45   241   241  28.5 -28.5 1.307   4.2  0.00  0.00  0.12  0.00 -0.06  0.00  0.00  0.41  0.00 37.41  1.00  64.8  1.73   0.0  1.00  1.00  1.00
 2020  46   242   242  28.4 -28.4 1.308   4.0  0.00  0.00  0.19  0.00 -0.06  0.00  0.00  0.46  0.00 53.80  1.00  87.9  1.63   0.0  1.00  1.00  1.00
 2020  47   243   243  28.8 -28.8 1.311   4.0  0.00  0.00  0.00  0.00 -0.06  0.00  0.00  0.12  0.00 55.90  1.00  83.2  1.49   0.0  1.00  1.00  1.00
 2020  48   244   244  29.3 -29.3 1.314   3.9  0.00  0.00  0.00  0.00 -0.06  0.00  0.00  0.12  0.00 54.39  1.00  80.2  1.47   0.0  1.00  1.00  1.00
 2020  49   245   245  29.1 -29.1 1.317   3.8  0.00  0.00  0.00  0.00 -0.06  0.00  0.00  0.17  0.00 56.20  1.00  77.5  1.38   0.0  1.00  1.00  1.00
 2020  50   246   246  29.2 -29.2 1.319   3.8  0.00  0.00  0.00  0.00 -0.06  0.00  0.00  0.22  0.00 49.59  1.00  74.8  1.51   0.0  1.00  1.00  1.00
 2020  51   247   247  29.9 -29.9 1.321   3.8  0.00  0.00  0.00  0.00 -0.06  0.00  0.00  0.27  0.00 49.17  1.00  72.5  1.47   0.0  1.00  1.00  1.00
 2020  52   248   248  30.2 -30.2 1.323   3.6  0.00  0.00  0.00  0.00 -0.06  0.00  0.00  0.31  0.00 50.07  1.00  70.1  1.40   0.0  1.00  1.00  1.00
 2020  53   249   249  31.3 -31.3 1.325   3.5  0.00  0.00  0.02  0.00 -0.06  0.00  0.00  0.35  0.00 42.41  1.00  67.5  1.59   0.0  1.00  1.00  1.00
 2020  54   250   250  31.1 -31.1 1.327   3.2  0.00  0.00  0.09  0.00 -0.06  0.00  0.00  0.39  0.00 42.35  1.00  65.7  1.55   0.0  1.00  1.00  1.00
 2020  55   251   251  30.5 -30.5 1.328   3.3  0.00  0.00  0.13  0.00 -0.06  0.00  0.00  0.42  0.00 44.48  1.00  64.1  1.44   0.0  1.00  1.00  1.00
 2020  56   252   252  29.4 -29.4 1.330   3.4  0.00  0.00  0.17  0.00 -0.06  0.00  0.00  0.45  0.00 49.72  1.00  62.5  1.26   0.0  1.00  1.00  1.00
 2020  57   253   253  29.8 -29.8 1.332   3.8  0.00  0.00  0.21  0.00 -0.06  0.00  0.00  0.47  0.00 69.58  1.00  86.1  1.24   0.0  1.00  1.00  1.00
 2020  58   254   254  30.0 -30.0 1.334   3.6  0.00  0.00  0.00  0.00 -0.06  0.00  0.00  0.13  0.00 59.34  1.00  81.2  1.37   0.0  1.00  1.00  1.00
 2020  59   255   255  30.3 -30.3 1.337   3.6  0.00  0.00  0.00  0.00 -0.06  0.00  0.00  0.12  0.00 52.89  1.00  78.3  1.48   0.0  1.00  1.00  1.00
 2020  60   256   256  32.2 -32.2 1.339   3.5  0.00  0.00  0.00  0.00 -0.06  0.00  0.00  0.18  0.00 48.13  1.00  75.6  1.57   0.0  1.00  1.00  1.00
 2020  61   257   257  30.8 -30.8 1.341   3.0  0.00  0.00  0.00  0.00 -0.06  0.00  0.00  0.22  0.00 55.21  1.00  73.1  1.32   0.0  1.00  1.00  1.00
 2020  62   258   258  30.8 -30.8 1.343   3.3  0.00  0.00  0.00  0.00 -0.06  0.00  0.00  0.27  0.00 58.85  1.00  72.3  1.23   0.0  1.00  1.00  1.00
 2020  63   259   259  30.8 -30.8 1.345   3.4  0.00  0.00  0.00  0.00 -0.06  0.00  0.00  0.28  0.00 52.79  1.00  70.1  1.33   0.0  1.00  1.00  1.00
 2020  64   260   260  30.8 -30.8 1.347   3.3  0.00  0.00  0.00  0.00 -0.06  0.00  0.00  0.32  0.00 45.23  1.00  67.5  1.49   0.0  1.00  1.00  1.00
 2020  65   261   261  31.3 -31.3 1.349   3.3  0.00  0.00  0.05  0.00 -0.06  0.00  0.00  0.36  0.00 44.94  1.00  65.1  1.45   0.0  1.00  1.00  1.00
 2020  66   262   262  30.5 -30.5 1.350   3.2  0.00  0.00  0.11  0.00 -0.06  0.00  0.00  0.41  0.00 52.64  1.00  63.0  1.20   0.0  1.00  1.00  1.00
 2020  67   263   263  30.8 -30.8 1.352   3.4  0.00  0.00  0.16  0.00 -0.06  0.00  0.00  0.44  0.00 49.30  1.00  61.5  1.25   0.0  1.00  1.00  1.00
 2020  68   264   264  30.6 -30.6 1.353   3.3  0.00  0.00  0.20  0.00 -0.06  0.00  0.00  0.47  0.00 69.62  1.00  84.4  1.21   0.0  1.00  1.00  1.00
 2020  69   265   265  31.4 -31.4 1.356   3.4  0.00  0.00  0.00  0.00 -0.06  0.00  0.00  0.14  0.00 57.28  1.00  78.4  1.37   0.0  1.00  1.00  1.00
 2020  70   266   266  30.6 -30.6 1.358   3.2  0.00  0.00  0.00  0.00 -0.06  0.00  0.00  0.15  0.00 60.56  1.00  75.7  1.25   0.0  1.00  1.00  1.00
 2020  71   267   267  31.1 -31.1 1.360   3.4  0.00  0.00  0.00  0.00 -0.06  0.00  0.00  0.20  0.00 65.85  1.00  73.3  1.11   0.0  1.00  1.00  1.00
 2020  72   268   268  30.6 -30.6 1.362   3.3  0.00  0.00  0.00  0.00 -0.06  0.00  0.00  0.24  0.00 69.46  1.00  71.4  1.03   0.0  1.00  1.00  1.00
 2020  73   269   269  29.3 -29.3 1.364   3.4  0.00  0.00  0.00  0.00 -0.06  0.00  0.00  0.27  0.00 68.38  1.00  69.3  1.01   0.0  1.00  1.00  1.00
 2020  74   270   270  28.9 -28.9 1.366   3.8  0.00  0.00  0.00  0.00 -0.06  0.00  0.00  0.31  0.00 72.67  1.00  67.4  0.93   0.0  1.00  1.00  1.00
 2020  75   271   271  29.3 -29.3 1.368   3.9  0.00  0.00  0.02  0.00 -0.06  0.00  0.00  0.34  0.00 62.48  1.00  65.4  1.05   0.0  1.00  1.00  1.00
 2020  76   272   272  30.3 -30.3 1.370   3.8  0.00  0.00  0.07  0.00 -0.06  0.00  0.00  0.38  0.00 61.00  1.00  64.0  1.05   0.0  1.00  1.00  1.00
 2020  77   273   273  30.9 -30.9 1.372   3.5  0.00  0.00  0.10  0.00 -0.06  0.00  0.00  0.40  0.00 53.62  1.00  62.6  1.17   0.0  1.00  1.00  1.00
 2020  78   274   274  31.3 -31.3 1.373   3.3  0.00  0.00  0.13  0.00 -0.06  0.00  0.00  0.42  0.00 56.92  1.00  61.4  1.08   0.0  1.00  1.00  1.00
 2020  79   275   275  31.3 -31.3 1.375   3.2  0.00  0.00  0.16  0.00 -0.06  0.00  0.00  0.44  0.00 74.07  1.00  82.6  1.12   0.0  1.00  1.00  1.00
 2020  80   276   276  30.2 -30.2 1.377   3.2  0.00  0.00  0.00  0.00 -0.06  0.00  0.00  0.14  0.00 70.02  1.00  77.6  1.11   0.0  1.00  1.00  1.00
 2020  81   277   277  31.5 -31.5 1.380   3.5  0.00  0.00  0.00  0.00 -0.06  0.00  0.00  0.15  0.00 63.65  1.00  72.2  1.13   0.0  1.00  1.00  1.00
 2020  82   278   278  30.5 -30.5 1.382   3.1  0.00  0.00  0.00  0.00 -0.06  0.00  0.00  0.21  0.00 67.90  1.00  69.8  1.03   0.0  1.00  1.00  1.00
 2020  83   279   279  30.7 -30.7 1.384   3.4  0.00  0.00  0.00  0.00 -0.06  0.00  0.00  0.26  0.00 77.82  1.00  75.3  0.97   0.0  1.00  1.00  1.00
 2020  84   280   280  28.7 -28.7 1.386   3.4  0.00  0.00  0.00  0.00 -0.06  0.00  0.00  0.16  0.00 79.24  1.00  72.2  0.91   0.0  1.00  1.00  1.00
 2020  85   281   281  29.9 -29.9 1.389   3.9  0.00  0.00  0.00  0.00 -0.06  0.00  0.00  0.19  0.00 80.54  1.00  69.8  0.87   0.0  1.00  1.00  1.00
 2020  86   282   282  30.1 -30.1 1.391   3.6  0.00  0.00  0.00  0.00 -0.06  0.00  0.00  0.24  0.00 71.23  1.00  67.6  0.95   0.0  1.00  1.00  1.00
 2020  87   283   283  31.5 -31.5 1.393   3.5  0.00  0.00  0.00  0.00 -0.06  0.00  0.00  0.28  0.00 65.12  1.00  65.3  1.00   0.0  1.00  1.00  1.00
 2020  88   284   284  31.3 -31.3 1.395   3.2  0.00  0.00  0.00  0.00 -0.06  0.00  0.00  0.32  0.00 64.96  1.00  63.2  0.97   0.0  1.00  1.00  1.00
 2020  89   285   285  31.7 -31.7 1.396   3.2  0.00  0.00  0.03  0.00 -0.06  0.00  0.00  0.35  0.00 63.16  1.00  61.2  0.97   0.0  1.00  1.00  1.00
 2020  90   286   286  31.8 -31.8 1.398   3.1  0.00  0.00  0.08  0.00 -0.06  0.00  0.00  0.39  0.00 63.25  1.00  59.3  0.94   0.0  1.00  1.00  1.00
 2020  91   287   287  30.8 -30.8 1.399   3.1  0.00  0.00  0.13  0.00 -0.06  0.00  0.00  0.42  0.00 89.17  1.00  76.7  0.86   0.0  1.00  1.00  1.00
 2020  92   288   288  30.0 -30.0 1.402   3.3  0.00  0.00  0.00  0.00 -0.06  0.00  0.00  0.17  0.00 86.62  1.00  72.2  0.83   0.0  1.00  1.00  1.00
 2020  93   289   289  30.6 -30.6 1.404   3.6  0.00  0.00  0.00  0.00 -0.06  0.00  0.00  0.17  0.00 65.97  1.00  66.8  1.01   0.0  1.00  1.00  1.00
 2020  94   290   290  31.2 -31.2 1.406   3.4  0.00  0.00  0.00  0.00 -0.06  0.00  0.00  0.25  0.00 73.30  1.00  64.6  0.88   0.0  1.00  1.00  1.00
 2020  95   291   291  28.9 -28.9 1.408   3.2  0.00  0.00  0.00  0.00 -0.06  0.00  0.00  0.29  0.00 76.60  1.00  62.5  0.82   0.0  1.00  1.00  1.00
 2020  96   292   292  30.6 -30.6 1.410   3.9  0.00  0.00  0.00  0.00 -0.06  0.00  0.00  0.32  0.00 64.00  1.00  60.5  0.95   0.0  1.00  1.00  1.00
 2020  97   293   293  30.7 -30.7 1.412   3.4  0.00  0.00  0.04  0.00 -0.06  0.00  0.00  0.36  0.00 73.82  1.00  60.9  0.82   0.0  1.00  1.00  1.00
 2020  98   294   294  30.8 -30.8 1.414   3.4  0.00  0.00  0.02  0.00 -0.06  0.00  0.00  0.35  0.00 62.59  1.00  58.8  0.94   0.0  1.00  1.00  1.00
 2020  99   295   295  29.6 -29.6 1.416   3.3  0.00  0.00  0.08  0.00 -0.06  0.00  0.00  0.39  0.00 75.75  1.00  57.0  0.75   0.0  1.00  1.00  1.00
 2020 100   296   296  29.5 -29.5 1.417   3.7  0.00  0.00  0.13  0.00 -0.06  0.00  0.00  0.42  0.00 77.78  1.00  55.3  0.71   0.0  1.00  1.00  1.00
 2020 101   297   297  30.4 -30.4 1.419   3.7  0.00  0.00  0.17  0.00 -0.06  0.00  0.00  0.45  0.00 93.43  1.00  75.8  0.81   0.0  1.00  1.00  1.00
 2020 102   298   298  28.5 -28.5 1.421   3.5  0.00  0.00  0.00  0.00 -0.06  0.00  0.00  0.15  0.00 99.90  1.00  73.0  0.71   0.0  1.00  1.00  1.00
 2020 103   299   299  30.7 -30.7 1.424   4.0  0.00  0.00  0.00  0.00 -0.06  0.00  0.00  0.15  0.00 75.95  1.00  67.9  0.89   0.0  1.00  1.00  1.00
 2020 104   300   300  31.5 -31.5 1.426   3.4  0.00  0.00  0.00  0.00 -0.06  0.00  0.00  0.19  0.00 76.92  1.00  63.0  0.82   0.0  1.00  1.00  1.00
 2020 105   301   301  31.9 -31.9 1.428   3.1  0.00  0.00  0.00  0.00 -0.06  0.00  0.00  0.26  0.00 69.18  1.00  60.9  0.88   0.0  1.00  1.00  1.00
 2020 106   302   302  31.9 -31.9 1.430   3.0  0.00  0.00  0.00  0.00 -0.06  0.00  0.00  0.30  0.00 75.75  1.00  58.9  0.78   0.0  1.00  1.00  1.00
 2020 107   303   303  31.5 -31.5 1.432   3.0  0.00  0.00  0.00  0.00 -0.06  0.00  0.00  0.33  0.00 74.79  1.00  57.1  0.76   0.0  1.00  1.00  1.00
 2020 108   304   304  30.9 -30.9 1.433   3.1  0.00  0.00  0.05  0.00 -0.06  0.00  0.00  0.36  0.00 71.10  1.00  55.4  0.78   0.0  1.00  1.00  1.00
 2020 109   305   305  31.0 -31.0 1.435   3.3  0.00  0.00  0.09  0.00 -0.06  0.00  0.00  0.39  0.00 84.25  1.00  53.9  0.64   0.0  1.00  1.00  1.00
 2020 110   306   306  30.0 -30.0 1.437   3.3  0.00  0.00  0.13  0.00 -0.06  0.00  0.00  0.42  0.00 77.85  1.00  53.0  0.68   0.0  1.00  1.00  1.00
 2020 111   307   307  30.0 -30.0 1.438   3.6  0.00  0.00  0.15  0.00 -0.06  0.00  0.00  0.43  0.00 76.41  1.00  52.1  0.68   0.0  1.00  1.00  1.00
 2020 112   308   308  31.3 -31.3 1.440   3.6  0.00  0.00  0.17  0.00 -0.06  0.00  0.00  0.45  0.00 68.72  1.00  51.1  0.74   0.0  1.00  1.00  1.00
 2020 113   309   309  30.7 -30.7 1.441   3.2  0.00  0.00  0.20  0.00 -0.06  0.00  0.00  0.46  0.00 77.77  1.00  50.3  0.65   0.0  1.00  1.00  1.00
 2020 114   310   310  30.1 -30.1 1.443   3.4  0.00  0.00  0.22  0.00 -0.06  0.00  0.00  0.48  0.00 73.54  1.00  49.4  0.67   0.0  1.00  1.00  1.00
 2020 115   311   311  30.4 -30.4 1.444   3.5  0.00  0.00  0.24  0.00 -0.06  0.00  0.00  0.49  0.00 99.90  1.00  71.1  0.66   0.0  1.00  1.00  1.00
 2020 116   312   312  30.5 -30.5 1.446   3.5  0.00  0.00  0.00  0.00 -0.06  0.00  0.00  0.17  0.00 99.90  1.00  72.8  0.64   0.0  1.00  1.00  1.00
 2020 117   313   313  29.8 -29.8 1.449   3.4  0.00  0.00  0.00  0.00 -0.06  0.00  0.00  0.15  0.00 99.90  1.00  73.2  0.66   0.0  1.00  1.00  1.00
 2020 118   314   314  29.5 -29.5 1.451   3.6  0.00  0.00  0.00  0.00 -0.06  0.00  0.00  0.13  0.00 99.90  1.00  69.3  0.60   0.0  1.00  1.00  1.00
 2020 119   315   315  30.4 -30.4 1.454   3.7  0.00  0.00  0.00  0.00 -0.06  0.00  0.00  0.14  0.00 93.96  1.00  64.9  0.69   0.0  1.00  1.00  1.00
 2020 120   316   316  31.6 -31.6 1.456   3.5  0.00  0.00  0.00  0.00 -0.06  0.00  0.00  0.19  0.00 94.01  1.00  65.0  0.69   0.0  1.00  1.00  1.00
 2020 121   317   317  29.9 -29.9 1.458   3.1  0.00  0.00  0.00  0.00 -0.06  0.00  0.00  0.16  0.00 99.90  1.00  73.9  0.62   0.0  1.00  1.00  1.00
 2020 122   318   318  29.9 -29.9 1.461   3.6  0.00  0.00  0.00  0.00 -0.06  0.00  0.00  0.13  0.00 99.90  1.00  79.0  0.65   0.0  1.00  1.00  1.00
 2020 123   319   319  29.8 -29.8 1.464   3.6  0.00  0.00  0.00  0.00 -0.06  0.00  0.00  0.10  0.00 99.90  1.00  74.5  0.63   0.0  1.00  1.00  1.00
 2020 124   320   320  28.6 -28.6 1.466   3.6  0.00  0.00  0.00  0.00 -0.06  0.00  0.00  0.08  0.00 99.90  1.00  76.2  0.60   0.0  1.00  1.00  1.00
 2020 125   321   321  29.0 -29.0 1.469   4.0  0.00  0.00  0.00  0.00 -0.06  0.00  0.00  0.06  0.00 99.90  1.00  75.3  0.65   0.0  1.00  1.00  1.00
 2020 126   322   322  30.1 -30.1 1.472   3.9  0.00  0.00  0.00  0.00 -0.06  0.00  0.00  0.06  0.00 99.90  1.00  70.8  0.66   0.0  1.00  1.00  1.00
 2020 127   323   323  30.6 -30.6 1.475   3.5  0.00  0.00  0.00  0.00 -0.06  0.00  0.00  0.11  0.00 99.90  1.00  68.7  0.67   0.0  1.00  1.00  1.00
 2020 128   324   324  29.9 -29.9 1.477   3.4  0.00  0.00  0.00  0.00 -0.06  0.00  0.00  0.15  0.00 99.90  1.00  66.9  0.58   0.0  1.00  1.00  1.00
 2020 129   325   325  29.3 -29.3 1.480   3.6  0.00  0.00  0.00  0.00 -0.06  0.00  0.00  0.18  0.00 99.90  1.00  65.1  0.54   0.0  1.00  1.00  1.00
 2020 130   326   326  28.5 -28.5 1.482   3.8  0.00  0.00  0.00  0.00 -0.06  0.00  0.00  0.21  0.00 99.90  1.00  70.3  0.66   0.0  1.00  1.00  1.00
 2020 131   327   327  29.5 -29.5 1.485   4.0  0.00  0.00  0.00  0.00 -0.06  0.00  0.00  0.11  0.00 99.90  1.00  71.7  0.58   0.0  1.00  1.00  1.00
 2020 132   328   328  29.1 -29.1 1.488   3.7  0.00  0.00  0.00  0.00 -0.06  0.00  0.00  0.09  0.00 99.90  1.00  68.4  0.58   0.0  1.00  1.00  1.00
 2020 133   329   329  29.4 -29.4 1.491   3.8  0.00  0.00  0.00  0.00 -0.06  0.00  0.00  0.12  0.00 99.90  1.00  66.3  0.58   0.0  1.00  1.00  1.00
 2020 134   330   330  28.5 -28.5 1.493   3.7  0.00  0.00  0.00  0.00 -0.06  0.00  0.00  0.15  0.00 99.90  1.00  66.2  0.59   0.0  1.00  1.00  1.00
 2020 135   331   331  29.8 -29.8 1.496   4.0  0.00  0.00  0.00  0.00 -0.06  0.00  0.00  0.15  0.00 99.90  1.00  64.2  0.62   0.0  1.00  1.00  1.00
 2020 136   332   332  29.6 -29.6 1.498   3.6  0.00  0.00  0.00  0.00 -0.06  0.00  0.00  0.19  0.00 99.90  1.00  72.1  0.58   0.0  1.00  1.00  1.00
 2020 137   333   333  30.0 -30.0 1.501   3.7  0.00  0.00  0.00  0.00 -0.06  0.00  0.00  0.09  0.00 99.90  1.00  68.9  0.58   0.0  1.00  1.00  1.00
 2020 138   334   334  30.9 -30.9 1.504   3.6  0.00  0.00  0.00  0.00 -0.06  0.00  0.00  0.10  0.00 99.90  1.00  64.7  0.62   0.0  1.00  1.00  1.00
 2020 139   335   335  30.4 -30.4 1.506   3.3  0.00  0.00  0.00  0.00 -0.06  0.00  0.00  0.15  0.00 99.90  1.00  64.4  0.53   0.0  1.00  1.00  1.00
 2020 140   336   336  29.4 -29.4 1.508   3.5  0.00  0.00  0.00  0.00 -0.06  0.00  0.00  0.15  0.00 99.90  1.00  62.7  0.56   0.0  1.00  1.00  1.00
 2020 141   337   337  29.4 -29.4 1.511   3.8  0.00  0.00  0.00  0.00 -0.06  0.00  0.00  0.18  0.00 99.90  1.00  68.4  0.54   0.0  1.00  1.00  1.00
 2020 142   338   338  29.4 -29.4 1.514   3.7  0.00  0.00  0.00  0.00 -0.06  0.00  0.00  0.10  0.00 99.90  1.00 100.1  0.54   0.0  1.00  1.00  1.00
 2020 143   339   339  29.8 -29.8 1.517   3.8  0.00  0.00  0.00  0.00 -0.06  0.00  0.00  0.00  0.00 99.90  1.00 105.0  0.53   0.0  1.00  1.00  1.00
 2020 144   340   340  30.4 -30.4 1.520   3.6  0.00  0.00  0.00  0.00 -0.06  0.00  0.00  0.00  0.00 99.90  1.00 104.4  0.59   0.0  1.00  1.00  1.00
 2020 145   341   341  28.2 -28.2 1.523   3.5  0.00  0.00  0.00  0.00 -0.06  0.00  0.00  0.00  0.00 99.90  1.00 111.7  0.53   0.0  1.00  1.00  1.00
 2020 146   342   342  28.1 -28.1 1.526   4.1  0.00  0.00  0.00  0.00 -0.06  0.00  0.00  0.00  0.00 99.90  1.00 108.3  0.54   0.0  1.00  1.00  1.00
 2020 147   343   343  30.4 -30.4 1.529   4.1  0.00  0.00  0.00  0.00 -0.06  0.00  0.00  0.00  0.00 99.90  1.00 104.7  0.57   0.0  1.00  1.00  1.00
 2020 148   344   344  29.5 -29.5 1.532   3.5  0.00  0.00  0.00  0.00 -0.06  0.00  0.00  0.00  0.00 99.90  1.00 101.3  0.52   0.0  1.00  1.00  1.00
 2020 149   345   345  28.3 -28.3 1.535   3.7  0.00  0.00  0.00  0.00 -0.06  0.00  0.00  0.00  0.00 99.90  1.00 124.4  0.58   0.0  1.00  1.00  1.00
 2020 150   346   346  28.6 -28.6 1.539   4.0  0.00  0.00  0.00  0.00 -0.06  0.00  0.00  0.00  0.00 99.90  1.00 130.6  0.56   0.0  1.00  1.00  1.00
 2020 151   347   347  29.2 -29.2 1.542   4.0  0.00  0.00  0.00  0.00 -0.06  0.00  0.00  0.00  0.00 99.90  1.00 128.4  0.54   0.0  1.00  1.00  1.00
 2020 152   348   348  30.0 -30.0 1.545   3.8  0.00  0.00  0.00  0.00 -0.06  0.00  0.00  0.00  0.00 99.90  1.00 125.9  0.56   0.0  1.00  1.00  1.00
 2020 153   349   349  26.3 -26.3 1.548   3.6  0.00  0.00  0.00  0.00 -0.06  0.00  0.00  0.00  0.00 99.90  1.00 176.8  0.47   0.0  1.00  1.00  1.00
 2020 154   350   350  28.0 -28.0 1.552   4.6  0.00  0.00  0.00  0.00 -0.06  0.00  0.00  0.00  0.00 99.90  1.00 177.3  0.59   0.0  1.00  1.00  1.00
 2020 155   351   351  29.0 -29.0 1.555   4.1  0.00  0.00  0.00  0.00 -0.06  0.00  0.00  0.00  0.00 99.90  1.00 173.7  0.59   0.0  1.00  1.00  1.00
 2020 156   352   352  28.2 -28.2 1.558   3.8  0.00  0.00  0.00  0.00 -0.06  0.00  0.00  0.00  0.00 99.90  1.00 160.0  0.55   0.0  1.00  1.00  1.00
 2020 157   353   353  29.1 -29.1 1.561   4.1  0.00  0.00  0.00  0.00 -0.06  0.00  0.00  0.00  0.00 99.90  1.00 156.4  0.60   0.0  1.00  1.00  1.00
 2020 158   354   354  27.6 -27.6 1.565   3.8  0.00  0.00  0.00  0.00 -0.06  0.00  0.00  0.00  0.00 99.90  1.00 155.8  0.49   0.0  1.00  1.00  1.00
 2020 159   355   355  28.0 -28.0 1.568   4.2  0.00  0.00  0.00  0.00 -0.06  0.00  0.00  0.00  0.00 99.90  1.00 151.8  0.58   0.0  1.00  1.00  1.00
 2020 160   356   356  27.9 -27.9 1.571   4.1  0.00  0.00  0.00  0.00 -0.06  0.00  0.00  0.00  0.00 99.90  1.00 167.7  0.53   0.0  1.00  1.00  1.00
 2020 161   357   357  28.0 -28.0 1.575   4.2  0.00  0.00  0.00  0.00 -0.06  0.00  0.00  0.00  0.00 99.90  1.00 158.7  0.55   0.0  1.00  1.00  1.00
 2020 162   358   358  28.2 -28.2 1.578   4.1  0.00  0.00  0.00  0.00 -0.06  0.00  0.00  0.00  0.00 99.90  1.00 155.6  0.55   0.0  1.00  1.00  1.00
 2020 163   359   359  26.5 -26.5 1.582   4.1  0.00  0.00  0.00  0.00 -0.06  0.00  0.00  0.00  0.00 99.90  1.00 152.3  0.49   0.0  1.00  1.00  1.00
 2020 164   360   360  27.2 -27.2 1.585   4.6  0.00  0.00  0.00  0.00 -0.06  0.00  0.00  0.00  0.00 99.90  1.00 150.3  0.53   0.0  1.00  1.00  1.00
 2020 165   361   361  27.3 -27.3 1.589   4.4  0.00  0.00  0.00  0.00 -0.06  0.00  0.00  0.00  0.00 99.90  1.00 181.6  0.52   0.0  1.00  1.00  1.00
 2020 166   362   362  27.9 -27.9 1.592   4.3  0.00  0.00  0.00  0.00 -0.06  0.00  0.00  0.00  0.00 99.90  1.00 163.0  0.55   0.0  1.00  1.00  1.00
 2020 167   363   363  29.2 -29.2 1.596   4.2  0.00  0.00  0.00  0.00 -0.06  0.00  0.00  0.00  0.00 99.90  1.00 158.6  0.55   0.0  1.00  1.00  1.00
 2020 168   364   364  28.6 -28.6 1.599   3.8  0.00  0.00  0.00  0.00 -0.06  0.00  0.00  0.00  0.00 99.90  1.00 154.9  0.60   0.0  1.00  1.00  1.00
 2020 169   365   365  28.5 -28.5 1.602   4.0  0.00  0.00  0.00  0.00 -0.06  0.00  0.00  0.00  0.00 99.90  1.00 155.2  0.48   0.0  1.00  1.00  1.00
 2020 170   366   366  27.0 -27.0 1.606   4.0  0.00  0.00  0.00  0.00 -0.06  0.00  0.00  0.00  0.00 99.90  1.00 155.6  0.53   0.0  1.00  1.00  1.00
 2020 171   367   367  28.0 -28.0 1.609   4.4  0.00  0.00  0.00  0.00 -0.06  0.00  0.00  0.00  0.00 99.90  1.00 152.8  0.57   0.0  1.00  1.00  1.00
 2020 172   368   368  28.2 -28.2 1.613   4.1  0.00  0.00  0.00  0.00 -0.06  0.00  0.00  0.00  0.00 99.90  1.00 150.8  0.58   0.0  1.00  1.00  1.00
 2020 173   369   369  27.6 -27.6 1.616   4.1  0.00  0.00  0.00  0.00 -0.06  0.00  0.00  0.00  0.00 99.90  1.00 150.4  0.47   0.0  1.00  1.00  1.00
 2020 174   370   370  26.6 -26.6 1.619   4.2  0.00  0.00  0.00  0.00 -0.06  0.00  0.00  0.00  0.00 99.90  1.00 153.5  0.54   0.0  1.00  1.00  1.00
 2020 175   371   371  27.5 -27.5 1.623   4.5  0.00  0.00  0.00  0.00 -0.06  0.00  0.00  0.00  0.00 99.90  1.00 149.7  0.57   0.0  1.00  1.00  1.00
 2020 176   372   372  26.8 -26.8 1.627   4.3  0.00  0.00  0.00  0.00 -0.06  0.00  0.00  0.00  0.00 99.90  1.00 149.3  0.51   0.0  1.00  1.00  1.00
 2020 177   373   373  27.2 -27.2 1.630   4.5  0.00  0.00  0.00  0.00 -0.06  0.00  0.00  0.00  0.00 99.90  1.00 145.6  0.57   0.0  1.00  1.00  1.00
 2020 178   374   374  26.5 -26.5 1.634   4.4  0.00  0.00  0.00  0.00 -0.06  0.00  0.00  0.00  0.00 99.90  1.00 143.8  0.51   0.0  1.00  1.00  1.00
 2020 179   375   375  27.4 -27.4 1.638   4.6  0.00  0.00  0.00  0.00 -0.06  0.00  0.00  0.00  0.00 99.90  1.00 141.8  0.53   0.0  1.00  1.00  1.00
 2020 180   376   376  26.6 -26.6 1.641   4.3  0.00  0.00  0.00  0.00 -0.06  0.00  0.00  0.00  0.00 99.90  1.00 148.7  0.54   0.0  1.00  1.00  1.00
 2020 181   377   377  26.0 -26.0 1.645   4.5  0.00  0.00  0.00  0.00 -0.06  0.00  0.00  0.00  0.00 99.90  1.00 148.4  0.46   0.0  1.00  1.00  1.00
 2020 182   378   378  27.2 -27.2 1.649   4.7  0.00  0.00  0.00  0.00 -0.06  0.00  0.00  0.00  0.00 99.90  1.00 150.2  0.50   0.0  1.00  1.00  1.00
 2020 183   379   379  28.1 -28.1 1.652   4.4  0.00  0.00  0.00  0.00 -0.06  0.00  0.00  0.00  0.00 99.90  1.00 146.9  0.56   0.0  1.00  1.00  1.00
 2020 184   380   380  28.5 -28.5 1.656   4.1  0.00  0.00  0.00  0.00 -0.06  0.00  0.00  0.00  0.00 99.90  1.00 143.5  0.57   0.0  1.00  1.00  1.00
 2020 185   381   381  26.7 -26.7 1.659   4.0  0.00  0.00  0.00  0.00 -0.06  0.00  0.00  0.00  0.00 99.90  1.00 161.4  0.51   0.0  1.00  1.00  1.00
 2020 186   382   382  25.2 -25.2 1.663   4.5  0.00  0.00  0.00  0.00 -0.06  0.00  0.00  0.00  0.00 99.90  1.00 162.6  0.50   0.0  1.00  1.00  1.00
 2020 187   383   383  26.8 -26.8 1.667   4.9  0.00  0.00  0.00  0.00 -0.06  0.00  0.00  0.00  0.00 99.90  1.00 161.6  0.51   0.0  1.00  1.00  1.00
 2020 188   384   384  27.3 -27.3 1.670   4.5  0.00  0.00  0.00  0.00 -0.06  0.00  0.00  0.00  0.00 99.90  1.00 158.5  0.56   0.0  1.00  1.00  1.00
 2020 189   385   385  26.6 -26.6 1.674   4.3  0.00  0.00  0.00  0.00 -0.06  0.00  0.00  0.00  0.00 99.90  1.00 158.5  0.54   0.0  1.00  1.00  1.00
 2020 190   386   386  27.0 -27.0 1.677   4.5  0.00  0.00  0.00  0.00 -0.06  0.00  0.00  0.00  0.00 99.90  1.00 155.0  0.55   0.0  1.00  1.00  1.00
 2020 191   387   387  27.0 -27.0 1.681   4.4  0.00  0.00  0.00  0.00 -0.06  0.00  0.00  0.00  0.00 99.90  1.00 151.7  0.53   0.0  1.00  1.00  1.00
 2020 192   388   388  24.8 -24.8 1.685   4.4  0.00  0.01  0.00  0.00 -0.06  0.00  0.00  0.00  0.00 99.90  1.00 190.7  0.51   0.0  1.00  1.00  1.00
 2020 193   389   389  25.5 -25.5 1.689   5.0  0.00  0.00  0.00  0.00 -0.06  0.00  0.00  0.00  0.00 99.90  1.00 179.8  0.50   0.0  1.00  1.00  1.00
 2020 194   390   390  26.5 -26.5 1.693   4.8  0.00  0.00  0.00  0.00 -0.06  0.00  0.00  0.00  0.00 99.90  1.00 162.7  0.53   0.0  1.00  1.00  1.00
 2020 195   391   391  26.8 -26.8 1.697   4.6  0.00  0.00  0.00  0.00 -0.06  0.00  0.00  0.00  0.00 99.90  1.00 156.0  0.51   0.0  1.00  1.00  1.00
 2020 196   392   392  25.5 -25.5 1.700   4.5  0.00  0.00  0.00  0.00 -0.06  0.00  0.00  0.00  0.00 99.90  1.00 161.9  0.50   0.0  1.00  1.00  1.00
 2020 197   393   393  25.8 -25.8 1.704   4.9  0.00  0.00  0.00  0.00 -0.06  0.00  0.00  0.00  0.00 99.90  1.00 156.9  0.50   0.0  1.00  1.00  1.00
 2020 198   394   394  26.5 -26.5 1.708   4.8  0.00  0.00  0.00  0.00 -0.06  0.00  0.00  0.00  0.00 99.90  1.00 158.9  0.48   0.0  1.00  1.00  1.00
 2020 199   395   395  26.0 -26.0 1.712   4.6  0.00  0.00  0.00  0.00 -0.06  0.00  0.00  0.00  0.00 99.90  1.00 157.6  0.48   0.0  1.00  1.00  1.00
 2020 200   396   396  26.5 -26.5 1.716   4.7  0.00  0.00  0.00  0.00 -0.06  0.00  0.00  0.00  0.00 99.90  1.00 167.6  0.54   0.0  1.00  1.00  1.00
 2020 201   397   397  26.3 -26.3 1.719   4.6  0.00  0.00  0.00  0.00 -0.06  0.00  0.00  0.00  0.00 99.90  1.00 169.9  0.47   0.0  1.00  1.00  1.00
 2020 202   398   398  25.8 -25.8 1.723   4.6  0.00  0.00  0.00  0.00 -0.06  0.00  0.00  0.00  0.00 99.90  1.00 166.9  0.49   0.0  1.00  1.00  1.00
 2020 203   399   399  26.5 -26.5 1.727   4.8  0.00  0.00  0.00  0.00 -0.06  0.00  0.00  0.00  0.00 99.90  1.00 158.6  0.49   0.0  1.00  1.00  1.00
 2020 204   400   400  27.0 -27.0 1.731   4.6  0.00  0.00  0.00  0.00 -0.06  0.00  0.00  0.00  0.00 99.90  1.00 158.8  0.53   0.0  1.00  1.00  1.00
 2020 205   401   401  25.2 -25.2 1.735   4.4  0.00  0.00  0.00  0.00 -0.06  0.00  0.00  0.00  0.00 99.90  1.00 155.5  0.54   0.0  1.00  1.00  1.00
 2020 206   402   402  26.2 -26.2 1.739   4.9  0.00  0.00  0.00  0.00 -0.06  0.00  0.00  0.00  0.00 99.90  1.00 152.6  0.50   0.0  1.00  1.00  1.00
 2020 207   403   403  25.8 -25.8 1.742   4.7  0.00  0.00  0.00  0.00 -0.06  0.00  0.00  0.00  0.00 99.90  1.00 150.8  0.45   0.0  1.00  1.00  1.00
 2020 208   404   404  26.8 -26.8 1.746   4.8  0.00  0.00  0.00  0.00 -0.06  0.00  0.00  0.00  0.00 99.90  1.00 149.0  0.49   0.0  1.00  1.00  1.00
 2020 209   405   405  25.0 -25.0 1.750   4.5  0.00  0.00  0.00  0.00 -0.06  0.00  0.00  0.00  0.00 99.90  1.00 147.8  0.45   0.0  1.00  1.00  1.00

*DSSAT Cropping System Model Ver. 4.8.0.019 -develop  JAN 07, 2022 20:10:06

*RUN   2        : TMEB419                   CSYCA048 UYAG1701    5
 MODEL          : CSYCA048 - Cassava
 EXPERIMENT     : UYAG1701 CS UYT_GXE
 DATA PATH      :
 TREATMENT  5   : TMEB419                   CSYCA048
  
!........DATES.......  ...TEMP... STAGE  ...PHENOLOGY....  ....PHOTOSYNTHESIS....  .....GROWTH..... H2O STRESS DETERMINANTS .N STRESS DETERMINANTS.
@YEAR DOY   DAS   DAP TMEAN TCDIF  GSTD    DU DYLFD  TFPD  WFPD  NFPD CO2FD RSFPD  TFGD  WFGD  NFGD WAVRD WUPRD  SWXD  EOPD  SNXD LN%RD SN%RD RN%RD            
 2019 169     0     0  28.9 -99.0     0   0.0  0.00  0.00  0.00  0.00  0.00  0.00  0.00  0.00  0.00 99.90  1.00  26.5  0.00   0.0  1.00  1.00  0.00
 2019 170     1     1  29.0 -29.0     0   0.0  0.00  0.00  0.00  0.00  0.00  0.00  0.00  0.00  0.00 99.90  1.00  31.1  0.00   0.0  1.00  1.00  0.00
 2019 171     2     2  26.7 -26.7     0   0.0  0.00  0.00  0.00  0.00  0.00  0.00  0.00  0.00  0.00 99.90  1.00  28.0  0.00   0.0  1.00  1.00  0.00
 2019 172     3     3  27.7 -27.7     0   0.0  0.00  0.00  0.00  0.00  0.00  0.00  0.00  0.00  0.00 99.90  1.00  25.2  0.00   0.0  1.00  1.00  0.00
 2019 173     4     4  25.8 -25.8     0   0.0  0.00  0.00  0.00  0.00  0.00  0.00  0.00  0.00  0.00 99.90  1.00  28.1  0.00   0.0  1.00  1.00  0.00
 2019 174     5     5  27.6 -27.6     0   0.0  0.00  0.00  0.00  0.00  0.00  0.00  0.00  0.00  0.00 99.90  1.00  25.9  0.00   0.0  1.00  1.00  0.00
 2019 175     6     6  24.4 -24.4     0   0.0  0.00  0.00  0.00  0.00  0.00  0.00  0.00  0.00  0.00 99.90  1.00  32.9  0.00   0.0  1.00  1.00  0.00
 2019 176     7     7  26.4 -26.4     0   0.0  0.00  0.00  0.00  0.00  0.00  0.00  0.00  0.00  0.00 99.90  1.00  27.4  0.00   0.0  1.00  1.00  0.00
 2019 177     8     8  25.0 -25.0     0   3.6  0.00  0.00  0.00  0.00 -0.06  0.00  0.00  0.00  0.00 99.90  1.00  27.5  0.00   0.0  1.00  1.00  1.00
 2019 178     9     9  25.0 -25.0 .0084   5.0  0.00  0.00  0.00  0.00 -0.06  0.00  0.00  0.00  0.00 99.90  1.00  27.8  0.00   0.0  1.00  1.00  1.00
 2019 179    10    10  26.4 -26.4 .0168   5.0  0.00  0.00  0.00  0.00 -0.06  0.00  0.00  0.00  0.00 99.90  1.00  28.1  0.00   0.0  1.00  1.00  1.00
 2019 180    11    11  27.3 -27.3 .0246   4.6  0.00  0.00  0.00  0.00 -0.06  0.00  0.00  0.00  0.00 99.90  1.00  28.5  0.00   0.0  1.00  1.00  1.00
 2019 181    12    12  27.4 -27.4 .0319   4.3  0.00  0.00  0.00  0.00 -0.06  0.00  0.00  0.00  0.00 99.90  1.00  36.2  0.00   0.0  1.00  1.00  1.00
 2019 182    13    13  25.8 -25.8 .0392   4.3  0.00  0.00  0.00  0.00 -0.06  0.00  0.00  0.00  0.00 99.90  1.00  38.5  0.00   0.0  1.00  1.00  1.00
 2019 183    14    14  26.5 -26.5 .0472   4.8  0.00  0.00  0.00  0.00 -0.06  0.00  0.00  0.00  0.00 99.90  1.00  36.6  0.01   0.0  1.00  1.00  1.00
 2019 184    15    15  26.8 -26.8 .0549   4.6  0.00  0.00  0.00  0.00 -0.06  0.00  0.00  0.00  0.00 99.90  1.00  39.1  0.03   0.0  1.00  1.00  1.00
 2019 185    16    16  26.8 -26.8 .0625   4.5  0.00  0.00  0.00  0.00 -0.06  0.00  0.00  0.00  0.00 99.90  1.00  51.4  0.05   0.0  1.00  1.00  1.00
 2019 186    17    17  25.7 -25.7 .0701   4.5  0.00  0.00  0.00  0.00 -0.06  0.00  0.00  0.00  0.00 99.90  1.00  53.3  0.09   0.0  1.00  1.00  1.00
 2019 187    18    18  27.2 -27.2 .0781   4.8  0.00  0.00  0.00  0.00 -0.06  0.00  0.00  0.00  0.00 99.90  1.00  50.0  0.14   0.0  1.00  1.00  1.00
 2019 188    19    19  27.2 -27.2 .0855   4.4  0.00  0.00  0.00  0.00 -0.06  0.00  0.00  0.00  0.00 99.90  1.00  56.4  0.18   0.0  1.00  1.00  1.00
 2019 189    20    20  23.8 -23.8 .0929   4.4  0.00  0.08  0.00  0.00 -0.06  0.00  0.01  0.00  0.00 99.90  1.00  54.8  0.24   0.0  1.00  1.00  1.00
 2019 190    21    21  26.4 -26.4 0.101   5.0  0.00  0.00  0.00  0.00 -0.06  0.00  0.00  0.00  0.00 99.90  1.00  52.0  0.32   0.0  1.00  1.00  1.00
 2019 191    22    22  26.0 -26.0 0.109   4.6  0.00  0.00  0.00  0.00 -0.06  0.00  0.00  0.00  0.00 99.90  1.00  50.5  0.40   0.0  1.00  1.00  1.00
 2019 192    23    23  24.4 -24.4 0.117   4.7  0.00  0.04  0.00  0.00 -0.06  0.00  0.00  0.00  0.00 99.90  1.00  51.1  0.40   0.0  1.00  1.00  1.00
 2019 193    24    24  25.5 -25.5 0.125   5.0  0.00  0.00  0.00  0.00 -0.06  0.00  0.00  0.00  0.00 99.90  1.00  65.5  0.50   0.0  1.00  1.00  1.00
 2019 194    25    25  26.5 -26.5 0.134   4.9  0.00  0.00  0.00  0.00 -0.06  0.00  0.00  0.00  0.00 87.63  1.00  56.5  0.64   0.0  1.00  1.00  1.00
 2019 195    26    26  26.0 -26.0 0.141   4.6  0.00  0.00  0.00  0.00 -0.06  0.00  0.00  0.00  0.00 99.90  1.00  69.0  0.69   0.0  1.00  1.00  1.00
 2019 196    27    27  26.2 -26.2 0.149   4.7  0.00  0.00  0.00  0.00 -0.06  0.00  0.00  0.00  0.00 95.18  1.00  70.5  0.74   0.0  1.00  1.00  1.00
 2019 197    28    28  27.5 -27.5 0.157   4.7  0.00  0.00  0.00  0.00 -0.06  0.00  0.00  0.00  0.00 74.76  1.00  65.5  0.88   0.0  1.00  1.00  1.00
 2019 198    29    29  27.4 -27.4 0.164   4.3  0.00  0.00  0.00  0.00 -0.06  0.00  0.00  0.00  0.00 64.03  1.00  62.6  0.98   0.0  1.00  1.00  1.00
 2019 199    30    30  26.5 -26.5 0.172   4.3  0.00  0.00  0.00  0.00 -0.06  0.00  0.00  0.00  0.00 69.30  1.00  59.0  0.85   0.0  1.00  1.00  1.00
 2019 200    31    31  24.8 -24.8 0.179   4.6  0.00  0.02  0.00  0.00 -0.06  0.00  0.00  0.00  0.00 74.92  1.00  69.3  0.92   0.0  1.00  1.00  1.00
 2019 201    32    32  26.0 -26.0 0.188   5.0  0.00  0.00  0.00  0.00 -0.06  0.00  0.00  0.00  0.00 57.21  1.00  67.1  1.17   0.0  1.00  1.00  1.00
 2019 202    33    33  26.4 -26.4 0.196   4.7  0.00  0.00  0.00  0.00 -0.06  0.00  0.00  0.00  0.00 50.52  1.00  63.2  1.25   0.0  1.00  1.00  1.00
 2019 203    34    34  25.7 -25.7 0.203   4.6  0.00  0.00  0.00  0.00 -0.06  0.00  0.00  0.00  0.00 54.85  1.00  63.7  1.16   0.0  1.00  1.00  1.00
 2019 204    35    35  26.8 -26.8 0.211   4.8  0.00  0.00  0.00  0.00 -0.06  0.00  0.00  0.00  0.00 46.90  1.00  62.8  1.34   0.0  1.00  1.00  1.00
 2019 205    36    36  27.7 -27.7 0.219   4.5  0.00  0.00  0.00  0.00 -0.06  0.00  0.00  0.00  0.00 46.54  1.00  61.6  1.32   0.0  1.00  1.00  1.00
 2019 206    37    37  24.8 -24.8 0.226   4.2  0.00  0.01  0.00  0.00 -0.06  0.00  0.00  0.00  0.00 51.91  1.00  67.0  1.29   0.0  1.00  1.00  1.00
 2019 207    38    38  25.8 -25.8 0.235   5.0  0.00  0.00  0.00  0.00 -0.06  0.00  0.00  0.00  0.00 50.58  1.00  65.4  1.29   0.0  1.00  1.00  1.00
 2019 208    39    39  25.9 -25.9 0.243   4.8  0.00  0.00  0.00  0.00 -0.06  0.00  0.00  0.00  0.00 44.70  1.00  63.7  1.43   0.0  1.00  1.00  1.00
 2019 209    40    40  26.1 -26.1 0.251   4.8  0.00  0.00  0.00  0.00 -0.06  0.00  0.00  0.00  0.00 39.85  1.00  62.0  1.56   0.0  1.00  1.00  1.00
 2019 210    41    41  26.2 -26.2 0.259   4.7  0.00  0.00  0.00  0.00 -0.06  0.00  0.00  0.00  0.00 38.68  1.00  60.4  1.56   0.0  1.00  1.00  1.00
 2019 211    42    42  26.5 -26.5 0.266   4.6  0.00  0.00  0.00  0.00 -0.06  0.00  0.00  0.04  0.00 37.96  1.00  59.0  1.55   0.0  1.00  1.00  1.00
 2019 212    43    43  26.2 -26.2 0.273   4.6  0.00  0.00  0.00  0.00 -0.06  0.00  0.00  0.10  0.00 34.01  1.00  57.5  1.69   0.0  1.00  1.00  1.00
 2019 213    44    44  25.8 -25.8 0.279   4.6  0.00  0.00  0.00  0.00 -0.06  0.00  0.00  0.16  0.00 34.76  1.00  63.3  1.82   0.0  1.00  1.00  1.00
 2019 214    45    45  25.1 -25.1 0.287   4.8  0.00  0.00  0.00  0.00 -0.06  0.00  0.00  0.01  0.00 38.17  1.00  67.4  1.77   0.0  1.00  1.00  1.00
 2019 215    46    46  25.8 -25.8 0.296   5.0  0.00  0.00  0.00  0.00 -0.06  0.00  0.00  0.00  0.00 36.11  1.00  65.2  1.81   0.0  1.00  1.00  1.00
 2019 216    47    47  26.0 -26.0 0.304   4.8  0.00  0.00  0.00  0.00 -0.06  0.00  0.00  0.00  0.00 30.66  1.00  62.9  2.05   0.0  1.00  1.00  1.00
 2019 217    48    48  25.8 -25.8 0.311   4.7  0.00  0.00  0.00  0.00 -0.06  0.00  0.00  0.07  0.00 39.01  1.00  77.5  1.99   0.0  1.00  1.00  1.00
 2019 218    49    49  25.8 -25.8 0.319   4.8  0.00  0.00  0.00  0.00 -0.06  0.00  0.00  0.00  0.00 41.36  1.00  82.9  2.01   0.0  1.00  1.00  1.00
 2019 219    50    50  24.2 -24.2 0.327   4.8  0.00  0.06  0.00  0.00 -0.06  0.00  0.00  0.00  0.00 45.90  1.00  87.8  1.91   0.0  1.00  1.00  1.00
 2019 220    51    51  24.7 -24.7 0.336   5.0  0.00  0.02  0.00  0.00 -0.06  0.00  0.00  0.00  0.00 42.13  1.00  85.7  2.04   0.0  1.00  1.00  1.00
 2019 221    52    52  25.6 -25.6 0.344   5.0  0.00  0.00  0.00  0.00 -0.06  0.00  0.00  0.00  0.00 37.49  1.00  83.8  2.24   0.0  1.00  1.00  1.00
 2019 222    53    53  26.4 -26.4 0.352   4.8  0.00  0.00  0.00  0.00 -0.06  0.00  0.00  0.00  0.00 34.18  1.00  81.0  2.37   0.0  1.00  1.00  1.00
 2019 223    54    54  26.5 -26.5 0.360   4.6  0.00  0.00  0.00  0.00 -0.06  0.00  0.00  0.00  0.00 37.57  1.00  84.7  2.25   0.0  1.00  1.00  1.00
 2019 224    55    55  24.9 -24.9 0.368   4.6  0.00  0.01  0.00  0.00 -0.06  0.00  0.00  0.00  0.00 35.49  1.00  82.7  2.33   0.0  1.00  1.00  1.00
 2019 225    56    56  26.2 -26.2 0.376   5.0  0.00  0.00  0.00  0.00 -0.06  0.00  0.00  0.00  0.00 32.42  1.00  81.4  2.51   0.0  1.00  1.00  1.00
 2019 226    57    57  26.5 -26.5 0.384   4.7  0.00  0.00  0.00  0.00 -0.06  0.00  0.00  0.00  0.00 30.02  1.00  78.3  2.61   0.0  1.00  1.00  1.00
 2019 227    58    58  25.3 -25.3 0.392   4.6  0.00  0.00  0.00  0.00 -0.06  0.00  0.00  0.00  0.00 30.73  1.00  77.3  2.52   0.0  1.00  1.00  1.00
 2019 228    59    59  25.3 -25.3 0.400   4.9  0.00  0.00  0.00  0.00 -0.06  0.00  0.00  0.00  0.00 30.75  1.00  76.0  2.47   0.0  1.00  1.00  1.00
 2019 229    60    60  26.4 -26.4 0.408   4.9  0.00  0.00  0.00  0.00 -0.06  0.00  0.00  0.00  0.00 27.48  1.00  73.0  2.66   0.0  1.00  1.00  1.00
 2019 230    61    61  25.7 -25.7 0.415   4.6  0.00  0.00  0.00  0.00 -0.06  0.00  0.00  0.07  0.00 35.83  1.00  93.5  2.61   0.0  1.00  1.00  1.00
 2019 231    62    62  25.3 -25.3 0.423   4.8  0.00  0.00  0.00  0.00 -0.06  0.00  0.00  0.00  0.00 36.37  1.00  92.3  2.54   0.0  1.00  1.00  1.00
 2019 232    63    63  26.8 -26.8 0.432   4.9  0.00  0.00  0.00  0.00 -0.06  0.00  0.00  0.00  0.00 32.07  1.00  89.4  2.79   0.0  1.00  1.00  1.00
 2019 233    64    64  26.4 -26.4 0.439   4.5  0.00  0.00  0.00  0.00 -0.06  0.00  0.00  0.00  0.00 40.01  1.00 106.7  2.67   0.0  1.00  1.00  1.00
 2019 234    65    65  25.8 -25.8 0.447   4.6  0.00  0.00  0.00  0.00 -0.06  0.00  0.00  0.00  0.00 35.85  1.00 105.4  2.94   0.0  1.00  1.00  1.00
 2019 235    66    66  25.6 -25.6 0.455   4.8  0.00  0.00  0.00  0.00 -0.06  0.00  0.00  0.00  0.00 48.36  1.00 120.8  2.50   0.0  1.00  1.00  1.00
 2019 236    67    67  25.5 -25.5 0.463   4.8  0.00  0.00  0.00  0.00 -0.06  0.00  0.00  0.00  0.00 43.77  1.00 117.8  2.69   0.0  1.00  1.00  1.00
 2019 237    68    68  25.6 -25.6 0.471   4.8  0.00  0.00  0.00  0.00 -0.06  0.00  0.00  0.00  0.00 37.63  1.00 116.3  3.09   0.0  1.00  1.00  1.00
 2019 238    69    69  25.9 -25.9 0.479   4.8  0.00  0.00  0.00  0.00 -0.06  0.00  0.00  0.00  0.00 35.02  1.00 108.4  3.10   0.0  1.00  1.00  1.00
 2019 239    70    70  24.7 -24.7 0.487   4.7  0.00  0.02  0.00  0.00 -0.06  0.00  0.00  0.00  0.00 38.49  1.00 109.7  2.85   0.0  1.00  1.00  1.00
 2019 240    71    71  26.3 -26.3 0.496   5.0  0.00  0.00  0.00  0.00 -0.06  0.00  0.00  0.00  0.00 36.93  1.00 110.3  2.99   0.0  1.00  1.00  1.00
 2019 241    72    72  26.9 -26.9 0.504   4.6  0.00  0.00  0.00  0.00 -0.06  0.00  0.00  0.00  0.00 32.44  1.00 110.7  3.41   0.0  1.00  1.00  1.00
 2019 242    73    73  26.9 -26.9 0.511   4.5  0.00  0.00  0.00  0.00 -0.06  0.00  0.00  0.00  0.00 35.43  1.00 108.4  3.06   0.0  1.00  1.00  1.00
 2019 243    74    74  25.8 -25.8 0.519   4.5  0.00  0.00  0.00  0.00 -0.06  0.00  0.00  0.00  0.00 42.29  1.00 129.1  3.05   0.0  1.00  1.00  1.00
 2019 244    75    75  26.2 -26.2 0.527   4.8  0.00  0.00  0.00  0.00 -0.06  0.00  0.00  0.00  0.00 33.55  1.00 117.5  3.50   0.0  1.00  1.00  1.00
 2019 245    76    76  26.1 -26.1 0.534   4.7  0.00  0.00  0.00  0.00 -0.06  0.00  0.00  0.00  0.00 35.61  1.00 115.5  3.24   0.0  1.00  1.00  1.00
 2019 246    77    77  27.0 -27.0 0.542   4.7  0.00  0.00  0.00  0.00 -0.06  0.00  0.00  0.00  0.00 34.79  1.00 116.8  3.36   0.0  1.00  1.00  1.00
 2019 247    78    78  27.1 -27.1 0.550   4.4  0.00  0.00  0.00  0.00 -0.06  0.00  0.00  0.00  0.00 38.11  1.00 127.7  3.35   0.0  1.00  1.00  1.00
 2019 248    79    79  26.0 -26.0 0.557   4.4  0.00  0.00  0.00  0.00 -0.06  0.00  0.00  0.00  0.00 43.03  1.00 147.0  3.42   0.0  1.00  1.00  1.00
 2019 249    80    80  26.9 -26.9 0.565   4.7  0.00  0.00  0.00  0.00 -0.06  0.00  0.00  0.00  0.00 38.44  1.00 137.1  3.57   0.0  1.00  1.00  1.00
 2019 250    81    81  27.0 -27.0 0.573   4.5  0.00  0.00  0.00  0.00 -0.06  0.00  0.00  0.00  0.00 38.82  1.00 135.5  3.49   0.0  1.00  1.00  1.00
 2019 251    82    82  26.0 -26.0 0.580   4.4  0.00  0.00  0.00  0.00 -0.06  0.00  0.00  0.00  0.00 40.81  1.00 131.0  3.21   0.0  1.00  1.00  1.00
 2019 252    83    83  25.5 -25.5 0.588   4.7  0.00  0.00  0.00  0.00 -0.06  0.00  0.00  0.00  0.00 40.63  1.00 135.7  3.34   0.0  1.00  1.00  1.00
 2019 253    84    84  26.1 -26.1 0.596   4.8  0.00  0.00  0.00  0.00 -0.06  0.00  0.00  0.00  0.00 44.28  1.00 153.6  3.47   0.0  1.00  1.00  1.00
 2019 254    85    85  26.0 -26.0 0.604   4.7  0.00  0.00  0.00  0.00 -0.06  0.00  0.00  0.00  0.00 43.98  1.00 153.0  3.48   0.0  1.00  1.00  1.00
 2019 255    86    86  26.8 -26.8 0.612   4.7  0.00  0.00  0.00  0.00 -0.06  0.00  0.00  0.00  0.00 41.06  1.00 144.4  3.52   0.0  1.00  1.00  1.00
 2019 256    87    87  27.6 -27.6 0.620   4.5  0.00  0.00  0.00  0.00 -0.06  0.00  0.00  0.00  0.00 40.35  1.00 140.8  3.49   0.0  1.00  1.00  1.00
 2019 257    88    88  27.0 -27.0 0.627   4.3  0.00  0.00  0.00  0.00 -0.06  0.00  0.00  0.00  0.00 40.23  1.00 140.6  3.49   0.0  1.00  1.00  1.00
 2019 258    89    89  26.6 -26.6 0.634   4.4  0.00  0.00  0.00  0.00 -0.06  0.00  0.00  0.00  0.00 37.54  1.00 137.2  3.65   0.0  1.00  1.00  1.00
 2019 259    90    90  25.6 -25.6 0.642   4.5  0.00  0.00  0.00  0.00 -0.06  0.00  0.00  0.00  0.00 49.58  1.00 157.9  3.18   0.0  1.00  1.00  1.00
 2019 260    91    91  26.7 -26.7 0.650   4.8  0.00  0.00  0.00  0.00 -0.06  0.00  0.00  0.00  0.00 44.19  1.00 150.8  3.41   0.0  1.00  1.00  1.00
 2019 261    92    92  27.1 -27.1 0.658   4.5  0.00  0.00  0.00  0.00 -0.06  0.00  0.00  0.00  0.00 44.04  1.00 166.6  3.78   0.0  1.00  1.00  1.00
 2019 262    93    93  25.5 -25.5 0.665   4.4  0.00  0.00  0.00  0.00 -0.06  0.00  0.00  0.00  0.00 48.37  1.00 158.5  3.28   0.0  1.00  1.00  1.00
 2019 263    94    94  26.8 -26.8 0.673   4.8  0.00  0.00  0.00  0.00 -0.06  0.00  0.00  0.00  0.00 33.89  1.00 142.5  4.21   0.0  1.00  1.00  1.00
 2019 264    95    95  26.6 -26.6 0.681   4.5  0.00  0.00  0.00  0.00 -0.06  0.00  0.00  0.00  0.00 35.72  1.00 145.5  4.07   0.0  1.00  1.00  1.00
 2019 265    96    96  27.0 -27.0 0.688   4.5  0.00  0.00  0.00  0.00 -0.06  0.00  0.00  0.00  0.00 33.99  1.00 143.2  4.21   0.0  1.00  1.00  1.00
 2019 266    97    97  27.8 -27.8 0.696   4.4  0.00  0.00  0.00  0.00 -0.06  0.00  0.00  0.00  0.00 39.07  1.00 147.5  3.78   0.0  1.00  1.00  1.00
 2019 267    98    98  27.5 -27.5 0.703   4.2  0.00  0.00  0.00  0.00 -0.06  0.00  0.00  0.00  0.00 42.36  1.00 161.3  3.81   0.0  1.00  1.00  1.00
 2019 268    99    99  27.7 -27.7 0.710   4.3  0.00  0.00  0.00  0.00 -0.06  0.00  0.00  0.00  0.00 40.38  1.00 168.4  4.17   0.0  1.00  1.00  1.00
 2019 269   100   100  26.5 -26.5 0.717   4.2  0.00  0.00  0.00  0.00 -0.06  0.00  0.00  0.00  0.00 43.95  1.00 168.1  3.82   0.0  1.00  1.00  1.00
 2019 270   101   101  25.9 -25.9 0.725   4.6  0.00  0.00  0.00  0.00 -0.06  0.00  0.00  0.00  0.00 49.52  1.00 176.2  3.56   0.0  1.00  1.00  1.00
 2019 271   102   102  26.9 -26.9 0.733   4.7  0.00  0.00  0.00  0.00 -0.06  0.00  0.00  0.00  0.00 43.10  1.00 177.5  4.12   0.0  1.00  1.00  1.00
 2019 272   103   103  27.1 -27.1 0.740   4.5  0.00  0.00  0.00  0.00 -0.06  0.00  0.00  0.00  0.00 44.63  1.00 170.9  3.83   0.0  1.00  1.00  1.00
 2019 273   104   104  27.4 -27.4 0.748   4.4  0.00  0.00  0.00  0.00 -0.06  0.00  0.00  0.00  0.00 44.97  1.00 165.1  3.67   0.0  1.00  1.00  1.00
 2019 274   105   105  27.3 -27.3 0.755   4.3  0.00  0.00  0.00  0.00 -0.06  0.00  0.00  0.00  0.00 45.39  1.00 171.2  3.77   0.0  1.00  1.00  1.00
 2019 275   106   106  26.1 -26.1 0.762   4.3  0.00  0.00  0.00  0.00 -0.06  0.00  0.00  0.00  0.00 51.39  1.00 179.1  3.48   0.0  1.00  1.00  1.00
 2019 276   107   107  26.0 -26.0 0.770   4.7  0.00  0.00  0.00  0.00 -0.06  0.00  0.00  0.00  0.00 54.38  1.00 190.6  3.50   0.0  1.00  1.00  1.00
 2019 277   108   108  26.7 -26.7 0.778   4.7  0.00  0.00  0.00  0.00 -0.06  0.00  0.00  0.00  0.00 49.90  1.00 184.8  3.70   0.0  1.00  1.00  1.00
 2019 278   109   109  26.9 -26.9 0.786   4.5  0.00  0.00  0.00  0.00 -0.06  0.00  0.00  0.00  0.00 43.62  1.00 163.4  3.75   0.0  1.00  1.00  1.00
 2019 279   110   110  25.7 -25.7 0.793   4.5  0.00  0.00  0.00  0.00 -0.06  0.00  0.00  0.00  0.00 47.12  1.00 164.5  3.49   0.0  1.00  1.00  1.00
 2019 280   111   111  25.6 -25.6 0.801   4.8  0.00  0.00  0.00  0.00 -0.06  0.00  0.00  0.00  0.00 53.48  1.00 172.1  3.22   0.0  1.00  1.00  1.00
 2019 281   112   112  25.8 -25.8 0.810   4.8  0.00  0.00  0.00  0.00 -0.06  0.00  0.00  0.00  0.00 50.59  1.00 173.0  3.42   0.0  1.00  1.00  1.00
 2019 282   113   113  26.9 -26.9 0.818   4.8  0.00  0.00  0.00  0.00 -0.06  0.00  0.00  0.00  0.00 52.24  1.00 168.8  3.23   0.0  1.00  1.00  1.00
 2019 283   114   114  27.0 -27.0 0.825   4.5  0.00  0.00  0.00  0.00 -0.06  0.00  0.00  0.00  0.00 48.54  1.00 167.1  3.44   0.0  1.00  1.00  1.00
 2019 284   115   115  26.6 -26.6 0.833   4.4  0.00  0.00  0.00  0.00 -0.06  0.00  0.00  0.00  0.00 53.51  1.00 191.1  3.57   0.0  1.00  1.00  1.00
 2019 285   116   116  26.8 -26.8 0.840   4.5  0.00  0.00  0.00  0.00 -0.06  0.00  0.00  0.00  0.00 51.64  1.00 188.4  3.65   0.0  1.00  1.00  1.00
 2019 286   117   117  27.0 -27.0 0.848   4.5  0.00  0.00  0.00  0.00 -0.06  0.00  0.00  0.00  0.00 49.61  1.00 176.5  3.56   0.0  1.00  1.00  1.00
 2019 287   118   118  27.3 -27.3 0.855   4.4  0.00  0.00  0.00  0.00 -0.06  0.00  0.00  0.00  0.00 50.64  1.00 188.1  3.71   0.0  1.00  1.00  1.00
 2019 288   119   119  27.8 -27.8 0.862   4.3  0.00  0.00  0.00  0.00 -0.06  0.00  0.00  0.00  0.00 52.83  1.00 179.4  3.40   0.0  1.00  1.00  1.00
 2019 289   120   120  25.5 -25.5 0.870   4.2  0.00  0.00  0.00  0.00 -0.06  0.00  0.00  0.00  0.00 48.98  1.00 180.3  3.68   0.0  1.00  1.00  1.00
 2019 290   121   121  27.3 -27.3 0.878   4.9  0.00  0.00  0.00  0.00 -0.06  0.00  0.00  0.00  0.00 55.60  1.00 176.0  3.17   0.0  1.00  1.00  1.00
 2019 291   122   122  26.2 -26.2 0.885   4.3  0.00  0.00  0.00  0.00 -0.06  0.00  0.00  0.00  0.00 56.69  1.00 191.6  3.38   0.0  1.00  1.00  1.00
 2019 292   123   123  26.6 -26.6 0.893   4.7  0.00  0.00  0.00  0.00 -0.06  0.00  0.00  0.00  0.00 55.63  1.00 184.0  3.31   0.0  1.00  1.00  1.00
 2019 293   124   124  27.1 -27.1 0.901   4.5  0.00  0.00  0.00  0.00 -0.06  0.00  0.00  0.00  0.00 52.54  1.00 176.5  3.36   0.0  1.00  1.00  1.00
 2019 294   125   125  27.0 -27.0 0.908   4.4  0.00  0.00  0.00  0.00 -0.06  0.00  0.00  0.00  0.00 50.37  1.00 181.5  3.60   0.0  1.00  1.00  1.00
[...]
 2020  75   271   271  29.3 -29.3 1.368   3.9  0.00  0.00  0.02  0.00 -0.06  0.00  0.00  0.34  0.00 62.48  1.00  65.4  1.05   0.0  1.00  1.00  1.00
 2020  76   272   272  30.3 -30.3 1.370   3.8  0.00  0.00  0.07  0.00 -0.06  0.00  0.00  0.38  0.00 61.00  1.00  64.0  1.05   0.0  1.00  1.00  1.00
 2020  77   273   273  30.9 -30.9 1.372   3.5  0.00  0.00  0.10  0.00 -0.06  0.00  0.00  0.40  0.00 53.62  1.00  62.6  1.17   0.0  1.00  1.00  1.00
 2020  78   274   274  31.3 -31.3 1.373   3.3  0.00  0.00  0.13  0.00 -0.06  0.00  0.00  0.42  0.00 56.92  1.00  61.4  1.08   0.0  1.00  1.00  1.00
 2020  79   275   275  31.3 -31.3 1.375   3.2  0.00  0.00  0.16  0.00 -0.06  0.00  0.00  0.44  0.00 74.07  1.00  82.6  1.12   0.0  1.00  1.00  1.00
 2020  80   276   276  30.2 -30.2 1.377   3.2  0.00  0.00  0.00  0.00 -0.06  0.00  0.00  0.14  0.00 70.02  1.00  77.6  1.11   0.0  1.00  1.00  1.00
 2020  81   277   277  31.5 -31.5 1.380   3.5  0.00  0.00  0.00  0.00 -0.06  0.00  0.00  0.15  0.00 63.65  1.00  72.2  1.13   0.0  1.00  1.00  1.00
 2020  82   278   278  30.5 -30.5 1.382   3.1  0.00  0.00  0.00  0.00 -0.06  0.00  0.00  0.21  0.00 67.90  1.00  69.8  1.03   0.0  1.00  1.00  1.00
 2020  83   279   279  30.7 -30.7 1.384   3.4  0.00  0.00  0.00  0.00 -0.06  0.00  0.00  0.26  0.00 77.82  1.00  75.3  0.97   0.0  1.00  1.00  1.00
 2020  84   280   280  28.7 -28.7 1.386   3.4  0.00  0.00  0.00  0.00 -0.06  0.00  0.00  0.16  0.00 79.24  1.00  72.2  0.91   0.0  1.00  1.00  1.00
 2020  85   281   281  29.9 -29.9 1.389   3.9  0.00  0.00  0.00  0.00 -0.06  0.00  0.00  0.19  0.00 80.54  1.00  69.8  0.87   0.0  1.00  1.00  1.00
 2020  86   282   282  30.1 -30.1 1.391   3.6  0.00  0.00  0.00  0.00 -0.06  0.00  0.00  0.24  0.00 71.23  1.00  67.6  0.95   0.0  1.00  1.00  1.00
 2020  87   283   283  31.5 -31.5 1.393   3.5  0.00  0.00  0.00  0.00 -0.06  0.00  0.00  0.28  0.00 65.12  1.00  65.3  1.00   0.0  1.00  1.00  1.00
 2020  88   284   284  31.3 -31.3 1.395   3.2  0.00  0.00  0.00  0.00 -0.06  0.00  0.00  0.32  0.00 64.96  1.00  63.2  0.97   0.0  1.00  1.00  1.00
 2020  89   285   285  31.7 -31.7 1.396   3.2  0.00  0.00  0.03  0.00 -0.06  0.00  0.00  0.35  0.00 63.16  1.00  61.2  0.97   0.0  1.00  1.00  1.00
 2020  90   286   286  31.8 -31.8 1.398   3.1  0.00  0.00  0.08  0.00 -0.06  0.00  0.00  0.39  0.00 63.25  1.00  59.3  0.94   0.0  1.00  1.00  1.00
 2020  91   287   287  30.8 -30.8 1.399   3.1  0.00  0.00  0.13  0.00 -0.06  0.00  0.00  0.42  0.00 89.17  1.00  76.7  0.86   0.0  1.00  1.00  1.00
 2020  92   288   288  30.0 -30.0 1.402   3.3  0.00  0.00  0.00  0.00 -0.06  0.00  0.00  0.17  0.00 86.62  1.00  72.2  0.83   0.0  1.00  1.00  1.00
 2020  93   289   289  30.6 -30.6 1.404   3.6  0.00  0.00  0.00  0.00 -0.06  0.00  0.00  0.17  0.00 65.97  1.00  66.8  1.01   0.0  1.00  1.00  1.00
 2020  94   290   290  31.2 -31.2 1.406   3.4  0.00  0.00  0.00  0.00 -0.06  0.00  0.00  0.25  0.00 73.30  1.00  64.6  0.88   0.0  1.00  1.00  1.00
 2020  95   291   291  28.9 -28.9 1.408   3.2  0.00  0.00  0.00  0.00 -0.06  0.00  0.00  0.29  0.00 76.60  1.00  62.5  0.82   0.0  1.00  1.00  1.00
 2020  96   292   292  30.6 -30.6 1.410   3.9  0.00  0.00  0.00  0.00 -0.06  0.00  0.00  0.32  0.00 64.00  1.00  60.5  0.95   0.0  1.00  1.00  1.00
 2020  97   293   293  30.7 -30.7 1.412   3.4  0.00  0.00  0.04  0.00 -0.06  0.00  0.00  0.36  0.00 73.82  1.00  60.9  0.82   0.0  1.00  1.00  1.00
 2020  98   294   294  30.8 -30.8 1.414   3.4  0.00  0.00  0.02  0.00 -0.06  0.00  0.00  0.35  0.00 62.59  1.00  58.8  0.94   0.0  1.00  1.00  1.00
 2020  99   295   295  29.6 -29.6 1.416   3.3  0.00  0.00  0.08  0.00 -0.06  0.00  0.00  0.39  0.00 75.75  1.00  57.0  0.75   0.0  1.00  1.00  1.00
 2020 100   296   296  29.5 -29.5 1.417   3.7  0.00  0.00  0.13  0.00 -0.06  0.00  0.00  0.42  0.00 77.78  1.00  55.3  0.71   0.0  1.00  1.00  1.00
 2020 101   297   297  30.4 -30.4 1.419   3.7  0.00  0.00  0.17  0.00 -0.06  0.00  0.00  0.45  0.00 93.43  1.00  75.8  0.81   0.0  1.00  1.00  1.00
 2020 102   298   298  28.5 -28.5 1.421   3.5  0.00  0.00  0.00  0.00 -0.06  0.00  0.00  0.15  0.00 99.90  1.00  73.0  0.71   0.0  1.00  1.00  1.00
 2020 103   299   299  30.7 -30.7 1.424   4.0  0.00  0.00  0.00  0.00 -0.06  0.00  0.00  0.15  0.00 75.95  1.00  67.9  0.89   0.0  1.00  1.00  1.00
 2020 104   300   300  31.5 -31.5 1.426   3.4  0.00  0.00  0.00  0.00 -0.06  0.00  0.00  0.19  0.00 76.92  1.00  63.0  0.82   0.0  1.00  1.00  1.00
 2020 105   301   301  31.9 -31.9 1.428   3.1  0.00  0.00  0.00  0.00 -0.06  0.00  0.00  0.26  0.00 69.18  1.00  60.9  0.88   0.0  1.00  1.00  1.00
 2020 106   302   302  31.9 -31.9 1.430   3.0  0.00  0.00  0.00  0.00 -0.06  0.00  0.00  0.30  0.00 75.75  1.00  58.9  0.78   0.0  1.00  1.00  1.00
 2020 107   303   303  31.5 -31.5 1.432   3.0  0.00  0.00  0.00  0.00 -0.06  0.00  0.00  0.33  0.00 74.79  1.00  57.1  0.76   0.0  1.00  1.00  1.00
 2020 108   304   304  30.9 -30.9 1.433   3.1  0.00  0.00  0.05  0.00 -0.06  0.00  0.00  0.36  0.00 71.10  1.00  55.4  0.78   0.0  1.00  1.00  1.00
 2020 109   305   305  31.0 -31.0 1.435   3.3  0.00  0.00  0.09  0.00 -0.06  0.00  0.00  0.39  0.00 84.25  1.00  53.9  0.64   0.0  1.00  1.00  1.00
 2020 110   306   306  30.0 -30.0 1.437   3.3  0.00  0.00  0.13  0.00 -0.06  0.00  0.00  0.42  0.00 77.85  1.00  53.0  0.68   0.0  1.00  1.00  1.00
 2020 111   307   307  30.0 -30.0 1.438   3.6  0.00  0.00  0.15  0.00 -0.06  0.00  0.00  0.43  0.00 76.41  1.00  52.1  0.68   0.0  1.00  1.00  1.00
 2020 112   308   308  31.3 -31.3 1.440   3.6  0.00  0.00  0.17  0.00 -0.06  0.00  0.00  0.45  0.00 68.72  1.00  51.1  0.74   0.0  1.00  1.00  1.00
 2020 113   309   309  30.7 -30.7 1.441   3.2  0.00  0.00  0.20  0.00 -0.06  0.00  0.00  0.46  0.00 77.77  1.00  50.3  0.65   0.0  1.00  1.00  1.00
 2020 114   310   310  30.1 -30.1 1.443   3.4  0.00  0.00  0.22  0.00 -0.06  0.00  0.00  0.48  0.00 73.54  1.00  49.4  0.67   0.0  1.00  1.00  1.00
 2020 115   311   311  30.4 -30.4 1.444   3.5  0.00  0.00  0.24  0.00 -0.06  0.00  0.00  0.49  0.00 99.90  1.00  71.1  0.66   0.0  1.00  1.00  1.00
 2020 116   312   312  30.5 -30.5 1.446   3.5  0.00  0.00  0.00  0.00 -0.06  0.00  0.00  0.17  0.00 99.90  1.00  72.8  0.64   0.0  1.00  1.00  1.00
 2020 117   313   313  29.8 -29.8 1.449   3.4  0.00  0.00  0.00  0.00 -0.06  0.00  0.00  0.15  0.00 99.90  1.00  73.2  0.66   0.0  1.00  1.00  1.00
 2020 118   314   314  29.5 -29.5 1.451   3.6  0.00  0.00  0.00  0.00 -0.06  0.00  0.00  0.13  0.00 99.90  1.00  69.3  0.60   0.0  1.00  1.00  1.00
 2020 119   315   315  30.4 -30.4 1.454   3.7  0.00  0.00  0.00  0.00 -0.06  0.00  0.00  0.14  0.00 93.96  1.00  64.9  0.69   0.0  1.00  1.00  1.00
 2020 120   316   316  31.6 -31.6 1.456   3.5  0.00  0.00  0.00  0.00 -0.06  0.00  0.00  0.19  0.00 94.01  1.00  65.0  0.69   0.0  1.00  1.00  1.00
 2020 121   317   317  29.9 -29.9 1.458   3.1  0.00  0.00  0.00  0.00 -0.06  0.00  0.00  0.16  0.00 99.90  1.00  73.9  0.62   0.0  1.00  1.00  1.00
 2020 122   318   318  29.9 -29.9 1.461   3.6  0.00  0.00  0.00  0.00 -0.06  0.00  0.00  0.13  0.00 99.90  1.00  79.0  0.65   0.0  1.00  1.00  1.00
 2020 123   319   319  29.8 -29.8 1.464   3.6  0.00  0.00  0.00  0.00 -0.06  0.00  0.00  0.10  0.00 99.90  1.00  74.5  0.63   0.0  1.00  1.00  1.00
 2020 124   320   320  28.6 -28.6 1.466   3.6  0.00  0.00  0.00  0.00 -0.06  0.00  0.00  0.08  0.00 99.90  1.00  76.2  0.60   0.0  1.00  1.00  1.00
 2020 125   321   321  29.0 -29.0 1.469   4.0  0.00  0.00  0.00  0.00 -0.06  0.00  0.00  0.06  0.00 99.90  1.00  75.3  0.65   0.0  1.00  1.00  1.00
 2020 126   322   322  30.1 -30.1 1.472   3.9  0.00  0.00  0.00  0.00 -0.06  0.00  0.00  0.06  0.00 99.90  1.00  70.8  0.66   0.0  1.00  1.00  1.00
 2020 127   323   323  30.6 -30.6 1.475   3.5  0.00  0.00  0.00  0.00 -0.06  0.00  0.00  0.11  0.00 99.90  1.00  68.7  0.67   0.0  1.00  1.00  1.00
 2020 128   324   324  29.9 -29.9 1.477   3.4  0.00  0.00  0.00  0.00 -0.06  0.00  0.00  0.15  0.00 99.90  1.00  66.9  0.58   0.0  1.00  1.00  1.00
 2020 129   325   325  29.3 -29.3 1.480   3.6  0.00  0.00  0.00  0.00 -0.06  0.00  0.00  0.18  0.00 99.90  1.00  65.1  0.54   0.0  1.00  1.00  1.00
 2020 130   326   326  28.5 -28.5 1.482   3.8  0.00  0.00  0.00  0.00 -0.06  0.00  0.00  0.21  0.00 99.90  1.00  70.3  0.66   0.0  1.00  1.00  1.00
 2020 131   327   327  29.5 -29.5 1.485   4.0  0.00  0.00  0.00  0.00 -0.06  0.00  0.00  0.11  0.00 99.90  1.00  71.7  0.58   0.0  1.00  1.00  1.00
 2020 132   328   328  29.1 -29.1 1.488   3.7  0.00  0.00  0.00  0.00 -0.06  0.00  0.00  0.09  0.00 99.90  1.00  68.4  0.58   0.0  1.00  1.00  1.00
 2020 133   329   329  29.4 -29.4 1.491   3.8  0.00  0.00  0.00  0.00 -0.06  0.00  0.00  0.12  0.00 99.90  1.00  66.3  0.58   0.0  1.00  1.00  1.00
 2020 134   330   330  28.5 -28.5 1.493   3.7  0.00  0.00  0.00  0.00 -0.06  0.00  0.00  0.15  0.00 99.90  1.00  66.2  0.59   0.0  1.00  1.00  1.00
 2020 135   331   331  29.8 -29.8 1.496   4.0  0.00  0.00  0.00  0.00 -0.06  0.00  0.00  0.15  0.00 99.90  1.00  64.2  0.62   0.0  1.00  1.00  1.00
 2020 136   332   332  29.6 -29.6 1.498   3.6  0.00  0.00  0.00  0.00 -0.06  0.00  0.00  0.19  0.00 99.90  1.00  72.1  0.58   0.0  1.00  1.00  1.00
 2020 137   333   333  30.0 -30.0 1.501   3.7  0.00  0.00  0.00  0.00 -0.06  0.00  0.00  0.09  0.00 99.90  1.00  68.9  0.58   0.0  1.00  1.00  1.00
 2020 138   334   334  30.9 -30.9 1.504   3.6  0.00  0.00  0.00  0.00 -0.06  0.00  0.00  0.10  0.00 99.90  1.00  64.7  0.62   0.0  1.00  1.00  1.00
 2020 139   335   335  30.4 -30.4 1.506   3.3  0.00  0.00  0.00  0.00 -0.06  0.00  0.00  0.15  0.00 99.90  1.00  64.4  0.53   0.0  1.00  1.00  1.00
 2020 140   336   336  29.4 -29.4 1.508   3.5  0.00  0.00  0.00  0.00 -0.06  0.00  0.00  0.15  0.00 99.90  1.00  62.7  0.56   0.0  1.00  1.00  1.00
 2020 141   337   337  29.4 -29.4 1.511   3.8  0.00  0.00  0.00  0.00 -0.06  0.00  0.00  0.18  0.00 99.90  1.00  68.4  0.54   0.0  1.00  1.00  1.00
 2020 142   338   338  29.4 -29.4 1.514   3.7  0.00  0.00  0.00  0.00 -0.06  0.00  0.00  0.10  0.00 99.90  1.00 100.1  0.54   0.0  1.00  1.00  1.00
 2020 143   339   339  29.8 -29.8 1.517   3.8  0.00  0.00  0.00  0.00 -0.06  0.00  0.00  0.00  0.00 99.90  1.00 105.0  0.53   0.0  1.00  1.00  1.00
 2020 144   340   340  30.4 -30.4 1.520   3.6  0.00  0.00  0.00  0.00 -0.06  0.00  0.00  0.00  0.00 99.90  1.00 104.4  0.59   0.0  1.00  1.00  1.00
 2020 145   341   341  28.2 -28.2 1.523   3.5  0.00  0.00  0.00  0.00 -0.06  0.00  0.00  0.00  0.00 99.90  1.00 111.7  0.53   0.0  1.00  1.00  1.00
 2020 146   342   342  28.1 -28.1 1.526   4.1  0.00  0.00  0.00  0.00 -0.06  0.00  0.00  0.00  0.00 99.90  1.00 108.3  0.54   0.0  1.00  1.00  1.00
 2020 147   343   343  30.4 -30.4 1.529   4.1  0.00  0.00  0.00  0.00 -0.06  0.00  0.00  0.00  0.00 99.90  1.00 104.7  0.57   0.0  1.00  1.00  1.00
 2020 148   344   344  29.5 -29.5 1.532   3.5  0.00  0.00  0.00  0.00 -0.06  0.00  0.00  0.00  0.00 99.90  1.00 101.3  0.52   0.0  1.00  1.00  1.00
 2020 149   345   345  28.3 -28.3 1.535   3.7  0.00  0.00  0.00  0.00 -0.06  0.00  0.00  0.00  0.00 99.90  1.00 124.4  0.58   0.0  1.00  1.00  1.00
 2020 150   346   346  28.6 -28.6 1.539   4.0  0.00  0.00  0.00  0.00 -0.06  0.00  0.00  0.00  0.00 99.90  1.00 130.6  0.56   0.0  1.00  1.00  1.00
 2020 151   347   347  29.2 -29.2 1.542   4.0  0.00  0.00  0.00  0.00 -0.06  0.00  0.00  0.00  0.00 99.90  1.00 128.4  0.54   0.0  1.00  1.00  1.00
 2020 152   348   348  30.0 -30.0 1.545   3.8  0.00  0.00  0.00  0.00 -0.06  0.00  0.00  0.00  0.00 99.90  1.00 125.9  0.56   0.0  1.00  1.00  1.00
 2020 153   349   349  26.3 -26.3 1.548   3.6  0.00  0.00  0.00  0.00 -0.06  0.00  0.00  0.00  0.00 99.90  1.00 176.8  0.47   0.0  1.00  1.00  1.00
 2020 154   350   350  28.0 -28.0 1.552   4.6  0.00  0.00  0.00  0.00 -0.06  0.00  0.00  0.00  0.00 99.90  1.00 177.3  0.59   0.0  1.00  1.00  1.00
 2020 155   351   351  29.0 -29.0 1.555   4.1  0.00  0.00  0.00  0.00 -0.06  0.00  0.00  0.00  0.00 99.90  1.00 173.7  0.59   0.0  1.00  1.00  1.00
 2020 156   352   352  28.2 -28.2 1.558   3.8  0.00  0.00  0.00  0.00 -0.06  0.00  0.00  0.00  0.00 99.90  1.00 160.0  0.55   0.0  1.00  1.00  1.00
 2020 157   353   353  29.1 -29.1 1.561   4.1  0.00  0.00  0.00  0.00 -0.06  0.00  0.00  0.00  0.00 99.90  1.00 156.4  0.60   0.0  1.00  1.00  1.00
 2020 158   354   354  27.6 -27.6 1.565   3.8  0.00  0.00  0.00  0.00 -0.06  0.00  0.00  0.00  0.00 99.90  1.00 155.8  0.49   0.0  1.00  1.00  1.00
 2020 159   355   355  28.0 -28.0 1.568   4.2  0.00  0.00  0.00  0.00 -0.06  0.00  0.00  0.00  0.00 99.90  1.00 151.8  0.58   0.0  1.00  1.00  1.00
 2020 160   356   356  27.9 -27.9 1.571   4.1  0.00  0.00  0.00  0.00 -0.06  0.00  0.00  0.00  0.00 99.90  1.00 167.7  0.53   0.0  1.00  1.00  1.00
 2020 161   357   357  28.0 -28.0 1.575   4.2  0.00  0.00  0.00  0.00 -0.06  0.00  0.00  0.00  0.00 99.90  1.00 158.7  0.55   0.0  1.00  1.00  1.00
 2020 162   358   358  28.2 -28.2 1.578   4.1  0.00  0.00  0.00  0.00 -0.06  0.00  0.00  0.00  0.00 99.90  1.00 155.6  0.55   0.0  1.00  1.00  1.00
 2020 163   359   359  26.5 -26.5 1.582   4.1  0.00  0.00  0.00  0.00 -0.06  0.00  0.00  0.00  0.00 99.90  1.00 152.3  0.49   0.0  1.00  1.00  1.00
 2020 164   360   360  27.2 -27.2 1.585   4.6  0.00  0.00  0.00  0.00 -0.06  0.00  0.00  0.00  0.00 99.90  1.00 150.3  0.53   0.0  1.00  1.00  1.00
 2020 165   361   361  27.3 -27.3 1.589   4.4  0.00  0.00  0.00  0.00 -0.06  0.00  0.00  0.00  0.00 99.90  1.00 181.6  0.52   0.0  1.00  1.00  1.00
 2020 166   362   362  27.9 -27.9 1.592   4.3  0.00  0.00  0.00  0.00 -0.06  0.00  0.00  0.00  0.00 99.90  1.00 163.0  0.55   0.0  1.00  1.00  1.00
 2020 167   363   363  29.2 -29.2 1.596   4.2  0.00  0.00  0.00  0.00 -0.06  0.00  0.00  0.00  0.00 99.90  1.00 158.6  0.55   0.0  1.00  1.00  1.00
 2020 168   364   364  28.6 -28.6 1.599   3.8  0.00  0.00  0.00  0.00 -0.06  0.00  0.00  0.00  0.00 99.90  1.00 154.9  0.60   0.0  1.00  1.00  1.00
 2020 169   365   365  28.5 -28.5 1.602   4.0  0.00  0.00  0.00  0.00 -0.06  0.00  0.00  0.00  0.00 99.90  1.00 155.2  0.48   0.0  1.00  1.00  1.00
 2020 170   366   366  27.0 -27.0 1.606   4.0  0.00  0.00  0.00  0.00 -0.06  0.00  0.00  0.00  0.00 99.90  1.00 155.6  0.53   0.0  1.00  1.00  1.00
 2020 171   367   367  28.0 -28.0 1.609   4.4  0.00  0.00  0.00  0.00 -0.06  0.00  0.00  0.00  0.00 99.90  1.00 152.8  0.57   0.0  1.00  1.00  1.00
 2020 172   368   368  28.2 -28.2 1.613   4.1  0.00  0.00  0.00  0.00 -0.06  0.00  0.00  0.00  0.00 99.90  1.00 150.8  0.58   0.0  1.00  1.00  1.00
 2020 173   369   369  27.6 -27.6 1.616   4.1  0.00  0.00  0.00  0.00 -0.06  0.00  0.00  0.00  0.00 99.90  1.00 150.4  0.47   0.0  1.00  1.00  1.00
 2020 174   370   370  26.6 -26.6 1.619   4.2  0.00  0.00  0.00  0.00 -0.06  0.00  0.00  0.00  0.00 99.90  1.00 153.5  0.54   0.0  1.00  1.00  1.00
 2020 175   371   371  27.5 -27.5 1.623   4.5  0.00  0.00  0.00  0.00 -0.06  0.00  0.00  0.00  0.00 99.90  1.00 149.7  0.57   0.0  1.00  1.00  1.00
 2020 176   372   372  26.8 -26.8 1.627   4.3  0.00  0.00  0.00  0.00 -0.06  0.00  0.00  0.00  0.00 99.90  1.00 149.3  0.51   0.0  1.00  1.00  1.00
 2020 177   373   373  27.2 -27.2 1.630   4.5  0.00  0.00  0.00  0.00 -0.06  0.00  0.00  0.00  0.00 99.90  1.00 145.6  0.57   0.0  1.00  1.00  1.00
 2020 178   374   374  26.5 -26.5 1.634   4.4  0.00  0.00  0.00  0.00 -0.06  0.00  0.00  0.00  0.00 99.90  1.00 143.8  0.51   0.0  1.00  1.00  1.00
 2020 179   375   375  27.4 -27.4 1.638   4.6  0.00  0.00  0.00  0.00 -0.06  0.00  0.00  0.00  0.00 99.90  1.00 141.8  0.53   0.0  1.00  1.00  1.00
 2020 180   376   376  26.6 -26.6 1.641   4.3  0.00  0.00  0.00  0.00 -0.06  0.00  0.00  0.00  0.00 99.90  1.00 148.7  0.54   0.0  1.00  1.00  1.00
 2020 181   377   377  26.0 -26.0 1.645   4.5  0.00  0.00  0.00  0.00 -0.06  0.00  0.00  0.00  0.00 99.90  1.00 148.4  0.46   0.0  1.00  1.00  1.00
 2020 182   378   378  27.2 -27.2 1.649   4.7  0.00  0.00  0.00  0.00 -0.06  0.00  0.00  0.00  0.00 99.90  1.00 150.2  0.50   0.0  1.00  1.00  1.00
 2020 183   379   379  28.1 -28.1 1.652   4.4  0.00  0.00  0.00  0.00 -0.06  0.00  0.00  0.00  0.00 99.90  1.00 146.9  0.56   0.0  1.00  1.00  1.00
 2020 184   380   380  28.5 -28.5 1.656   4.1  0.00  0.00  0.00  0.00 -0.06  0.00  0.00  0.00  0.00 99.90  1.00 143.5  0.57   0.0  1.00  1.00  1.00
 2020 185   381   381  26.7 -26.7 1.659   4.0  0.00  0.00  0.00  0.00 -0.06  0.00  0.00  0.00  0.00 99.90  1.00 161.4  0.51   0.0  1.00  1.00  1.00
 2020 186   382   382  25.2 -25.2 1.663   4.5  0.00  0.00  0.00  0.00 -0.06  0.00  0.00  0.00  0.00 99.90  1.00 162.6  0.50   0.0  1.00  1.00  1.00
 2020 187   383   383  26.8 -26.8 1.667   4.9  0.00  0.00  0.00  0.00 -0.06  0.00  0.00  0.00  0.00 99.90  1.00 161.6  0.51   0.0  1.00  1.00  1.00
 2020 188   384   384  27.3 -27.3 1.670   4.5  0.00  0.00  0.00  0.00 -0.06  0.00  0.00  0.00  0.00 99.90  1.00 158.5  0.56   0.0  1.00  1.00  1.00
 2020 189   385   385  26.6 -26.6 1.674   4.3  0.00  0.00  0.00  0.00 -0.06  0.00  0.00  0.00  0.00 99.90  1.00 158.5  0.54   0.0  1.00  1.00  1.00
 2020 190   386   386  27.0 -27.0 1.677   4.5  0.00  0.00  0.00  0.00 -0.06  0.00  0.00  0.00  0.00 99.90  1.00 155.0  0.55   0.0  1.00  1.00  1.00
 2020 191   387   387  27.0 -27.0 1.681   4.4  0.00  0.00  0.00  0.00 -0.06  0.00  0.00  0.00  0.00 99.90  1.00 151.7  0.53   0.0  1.00  1.00  1.00
 2020 192   388   388  24.8 -24.8 1.685   4.4  0.00  0.01  0.00  0.00 -0.06  0.00  0.00  0.00  0.00 99.90  1.00 190.7  0.51   0.0  1.00  1.00  1.00
 2020 193   389   389  25.5 -25.5 1.689   5.0  0.00  0.00  0.00  0.00 -0.06  0.00  0.00  0.00  0.00 99.90  1.00 179.8  0.50   0.0  1.00  1.00  1.00
 2020 194   390   390  26.5 -26.5 1.693   4.8  0.00  0.00  0.00  0.00 -0.06  0.00  0.00  0.00  0.00 99.90  1.00 162.7  0.53   0.0  1.00  1.00  1.00
 2020 195   391   391  26.8 -26.8 1.697   4.6  0.00  0.00  0.00  0.00 -0.06  0.00  0.00  0.00  0.00 99.90  1.00 156.0  0.51   0.0  1.00  1.00  1.00
 2020 196   392   392  25.5 -25.5 1.700   4.5  0.00  0.00  0.00  0.00 -0.06  0.00  0.00  0.00  0.00 99.90  1.00 161.9  0.50   0.0  1.00  1.00  1.00
 2020 197   393   393  25.8 -25.8 1.704   4.9  0.00  0.00  0.00  0.00 -0.06  0.00  0.00  0.00  0.00 99.90  1.00 156.9  0.50   0.0  1.00  1.00  1.00
 2020 198   394   394  26.5 -26.5 1.708   4.8  0.00  0.00  0.00  0.00 -0.06  0.00  0.00  0.00  0.00 99.90  1.00 158.9  0.48   0.0  1.00  1.00  1.00
 2020 199   395   395  26.0 -26.0 1.712   4.6  0.00  0.00  0.00  0.00 -0.06  0.00  0.00  0.00  0.00 99.90  1.00 157.6  0.48   0.0  1.00  1.00  1.00
 2020 200   396   396  26.5 -26.5 1.716   4.7  0.00  0.00  0.00  0.00 -0.06  0.00  0.00  0.00  0.00 99.90  1.00 167.6  0.54   0.0  1.00  1.00  1.00
 2020 201   397   397  26.3 -26.3 1.719   4.6  0.00  0.00  0.00  0.00 -0.06  0.00  0.00  0.00  0.00 99.90  1.00 169.9  0.47   0.0  1.00  1.00  1.00
 2020 202   398   398  25.8 -25.8 1.723   4.6  0.00  0.00  0.00  0.00 -0.06  0.00  0.00  0.00  0.00 99.90  1.00 166.9  0.49   0.0  1.00  1.00  1.00
 2020 203   399   399  26.5 -26.5 1.727   4.8  0.00  0.00  0.00  0.00 -0.06  0.00  0.00  0.00  0.00 99.90  1.00 158.6  0.49   0.0  1.00  1.00  1.00
 2020 204   400   400  27.0 -27.0 1.731   4.6  0.00  0.00  0.00  0.00 -0.06  0.00  0.00  0.00  0.00 99.90  1.00 158.8  0.53   0.0  1.00  1.00  1.00
 2020 205   401   401  25.2 -25.2 1.735   4.4  0.00  0.00  0.00  0.00 -0.06  0.00  0.00  0.00  0.00 99.90  1.00 155.5  0.54   0.0  1.00  1.00  1.00
 2020 206   402   402  26.2 -26.2 1.739   4.9  0.00  0.00  0.00  0.00 -0.06  0.00  0.00  0.00  0.00 99.90  1.00 152.6  0.50   0.0  1.00  1.00  1.00
 2020 207   403   403  25.8 -25.8 1.742   4.7  0.00  0.00  0.00  0.00 -0.06  0.00  0.00  0.00  0.00 99.90  1.00 150.8  0.45   0.0  1.00  1.00  1.00
 2020 208   404   404  26.8 -26.8 1.746   4.8  0.00  0.00  0.00  0.00 -0.06  0.00  0.00  0.00  0.00 99.90  1.00 149.0  0.49   0.0  1.00  1.00  1.00
 2020 209   405   405  25.0 -25.0 1.750   4.5  0.00  0.00  0.00  0.00 -0.06  0.00  0.00  0.00  0.00 99.90  1.00 147.8  0.45   0.0  1.00  1.00  1.00
