$GROWTH FACTOR OUTPUTS FILE

*DSSAT Cropping System Model Ver. 4.8.0.019 -develop  APR 08, 2023 12:34:37

*RUN   1        : IITA-TMS-IBA000070        CSYCA048 UYAB1901    1
 MODEL          : CSYCA048 - Cassava
 EXPERIMENT     : UYAB1901 CS UYT_GXE
 DATA PATH      :
 TREATMENT  1   : IITA-TMS-IBA000070        CSYCA048
  
!........DATES.......  ...TEMP... STAGE  ...PHENOLOGY....  ....PHOTOSYNTHESIS....  .....GROWTH..... H2O STRESS DETERMINANTS .N STRESS DETERMINANTS.
@YEAR DOY   DAS   DAP TMEAN TCDIF  GSTD    DU DYLFD  TFPD  WFPD  NFPD CO2FD RSFPD  TFGD  WFGD  NFGD WAVRD WUPRD  SWXD  EOPD  SNXD LN%RD SN%RD RN%RD            
 2019 169     1     0  28.8 -99.0     0   0.0  0.00  0.00  0.00  0.00  0.00  0.00  0.00  0.00  0.00 99.90  1.00  17.3  0.00   0.0  0.00  0.00  0.00
 2019 170     2     1  29.1 -29.1     0   0.0  0.00  0.00  0.00  0.00  0.00  0.00  0.00  0.00  0.00 99.90  1.00  18.5  0.00   0.0  0.00  0.00  0.00
 2019 171     3     2  26.5 -26.5     0   0.0  0.00  0.00  0.00  0.00  0.00  0.00  0.00  0.00  0.00 99.90  1.00  19.0  0.00   0.0  0.00  0.00  0.00
 2019 172     4     3  26.1 -26.1     0   0.0  0.00  0.00  0.00  0.00  0.00  0.00  0.00  0.00  0.00 99.90  1.00  24.5  0.00   0.0  0.00  0.00  0.00
 2019 173     5     4  26.0 -26.0     0   0.0  0.00  0.00  0.00  0.00  0.00  0.00  0.00  0.00  0.00 99.90  1.00  27.0  0.00   0.0  0.00  0.00  0.00
 2019 174     6     5  25.8 -25.8     0   0.0  0.00  0.00  0.00  0.00  0.00  0.00  0.00  0.00  0.00 99.90  1.00  24.2  0.00   0.0  0.00  0.00  0.00
 2019 175     7     6  24.8 -24.8     0   0.0  0.00  0.00  0.00  0.00  0.00  0.00  0.00  0.00  0.00 99.90  1.00  28.5  0.00   0.0  0.00  0.00  0.00
 2019 176     8     7  25.9 -25.9     0   0.0  0.00  0.00  0.00  0.00  0.00  0.00  0.00  0.00  0.00 99.90  1.00  27.1  0.00   0.0  0.00  0.00  0.00
 2019 177     9     8  25.2 -25.2     0   0.0  0.00  0.00  0.00  0.00 -0.06  0.00  0.00  0.00  0.00 99.90  1.00  31.7  0.00   0.0  1.00  1.00  1.00
 2019 178    10     9  24.6 -24.6 .0045   4.9  0.00  0.02  0.00  0.00 -0.06  0.00  0.00  0.00  0.00 99.90  1.00  32.0  0.00   0.0  1.00  1.00  1.00
 2019 179    11    10  24.8 -24.8 .0090   5.0  0.00  0.01  0.00  0.00 -0.06  0.00  0.00  0.00  0.00 99.90  1.00  32.4  0.00   0.0  1.00  1.00  1.00
 2019 180    12    11  26.1 -26.1 .0136   5.0  0.00  0.00  0.00  0.00 -0.06  0.00  0.00  0.00  0.00 99.90  1.00  29.6  0.00   0.0  1.00  1.00  1.00
 2019 181    13    12  26.2 -26.2 .0179   4.7  0.00  0.00  0.00  0.00 -0.06  0.00  0.00  0.00  0.00 99.90  1.00  28.3  0.00   0.0  1.00  1.00  1.00
 2019 182    14    13  25.8 -25.8 .0221   4.7  0.00  0.00  0.00  0.00 -0.06  0.00  0.00  0.00  0.00 99.90  1.00  30.8  0.00   0.0  1.00  1.00  1.00
 2019 183    15    14  26.0 -26.0 .0265   4.8  0.00  0.00  0.00  0.00 -0.06  0.00  0.00  0.00  0.00 99.90  1.00  30.8  0.01   0.0  1.00  1.00  1.00
 2019 184    16    15  26.5 -26.5 .0308   4.7  0.00  0.00  0.00  0.00 -0.06  0.00  0.00  0.00  0.00 99.90  1.00  31.9  0.03   0.0  1.00  1.00  1.00
 2019 185    17    16  25.5 -25.5 .0349   4.6  0.00  0.00  0.00  0.00 -0.06  0.00  0.00  0.00  0.00 99.90  1.00  38.2  0.05   0.0  1.00  1.00  1.00
 2019 186    18    17  25.8 -25.8 .0393   4.8  0.00  0.00  0.00  0.00 -0.06  0.00  0.00  0.00  0.00 99.90  1.00  37.7  0.08   0.0  1.00  1.00  1.00
 2019 187    19    18  26.0 -26.0 .0437   4.8  0.00  0.00  0.00  0.00 -0.06  0.00  0.00  0.00  0.00 99.90  1.00  34.5  0.16   0.0  1.00  1.00  1.00
 2019 188    20    19  26.2 -26.2 .0480   4.7  0.00  0.00  0.00  0.00 -0.06  0.00  0.00  0.00  0.00 99.90  1.00  33.1  0.19   0.0  1.00  1.00  1.00
 2019 189    21    20  25.0 -25.0 .0522   4.6  0.00  0.00  0.00  0.00 -0.06  0.00  0.00  0.00  0.00 99.90  1.00  36.9  0.10   0.0  1.00  1.00  1.00
 2019 190    22    21  24.0 -24.0 .0568   5.0  0.00  0.06  0.00  0.00 -0.06  0.00  0.00  0.00  0.00 99.90  1.00  38.8  0.28   0.0  1.00  1.00  1.00
 2019 191    23    22  26.2 -26.2 .0613   5.0  0.00  0.00  0.00  0.00 -0.06  0.00  0.00  0.00  0.00 91.25  1.00  37.8  0.41   0.0  1.00  1.00  1.00
 2019 192    24    23  24.1 -24.1 .0656   4.6  0.00  0.06  0.00  0.00 -0.06  0.00  0.00  0.00  0.00 99.90  1.00  51.4  0.30   0.0  1.00  1.00  1.00
 2019 193    25    24  24.3 -24.3 .0701   5.0  0.00  0.05  0.00  0.00 -0.06  0.00  0.00  0.00  0.00 99.90  1.00  50.6  0.46   0.0  1.00  1.00  1.00
 2019 194    26    25  24.2 -24.2 .0747   5.0  0.00  0.05  0.00  0.00 -0.06  0.00  0.00  0.00  0.00 66.21  1.00  48.2  0.73   0.0  1.00  1.00  1.00
 2019 195    27    26  25.7 -25.7 .0792   5.0  0.00  0.00  0.00  0.00 -0.06  0.00  0.00  0.00  0.00 83.19  1.00  60.2  0.72   0.0  1.00  1.00  1.00
 2019 196    28    27  26.0 -26.0 .0836   4.8  0.00  0.00  0.00  0.00 -0.06  0.00  0.00  0.00  0.00 65.52  1.00  56.2  0.86   0.0  1.00  1.00  1.00
 2019 197    29    28  25.2 -25.2 .0879   4.7  0.00  0.00  0.00  0.00 -0.06  0.00  0.00  0.00  0.00 70.91  1.00  54.0  0.76   0.0  1.00  1.00  1.00
 2019 198    30    29  26.0 -26.0 .0924   4.9  0.00  0.00  0.00  0.00 -0.06  0.00  0.00  0.00  0.00 47.62  1.00  50.0  1.05   0.0  1.00  1.00  1.00
 2019 199    31    30  25.8 -25.8 .0967   4.7  0.00  0.00  0.00  0.00 -0.06  0.00  0.00  0.00  0.00 82.73  1.00  53.2  0.64   0.0  1.00  1.00  1.00
 2019 200    32    31  23.2 -23.2 0.101   4.8  0.00  0.12  0.00  0.00 -0.06  0.00  0.07  0.00  0.00 99.90  1.00  60.9  0.34   0.0  1.00  1.00  1.00
 2019 201    33    32  24.6 -24.6 0.106   5.0  0.00  0.03  0.00  0.00 -0.06  0.00  0.00  0.00  0.00 56.78  1.00  59.4  1.05   0.0  1.00  1.00  1.00
 2019 202    34    33  25.4 -25.4 0.110   5.0  0.00  0.00  0.00  0.00 -0.06  0.00  0.00  0.00  0.00 65.53  1.00  56.9  0.87   0.0  1.00  1.00  1.00
 2019 203    35    34  24.2 -24.2 0.115   4.9  0.00  0.05  0.00  0.00 -0.06  0.00  0.00  0.00  0.00 74.36  1.00  60.8  0.82   0.0  1.00  1.00  1.00
 2019 204    36    35  25.5 -25.5 0.119   5.0  0.00  0.00  0.00  0.00 -0.06  0.00  0.00  0.00  0.00 56.58  1.00  60.4  1.07   0.0  1.00  1.00  1.00
 2019 205    37    36  25.6 -25.6 0.124   4.9  0.00  0.00  0.00  0.00 -0.06  0.00  0.00  0.00  0.00 52.76  1.00  59.7  1.13   0.0  1.00  1.00  1.00
 2019 206    38    37  26.0 -26.0 0.128   4.8  0.00  0.00  0.00  0.00 -0.06  0.00  0.00  0.00  0.00 99.90  1.00  67.7  0.28   0.0  1.00  1.00  1.00
 2019 207    39    38  25.0 -25.0 0.132   4.7  0.00  0.00  0.00  0.00 -0.06  0.00  0.00  0.00  0.00 63.72  1.00  70.6  1.11   0.0  1.00  1.00  1.00
 2019 208    40    39  25.2 -25.2 0.137   5.0  0.00  0.00  0.00  0.00 -0.06  0.00  0.00  0.00  0.00 87.90  1.00  71.4  0.81   0.0  1.00  1.00  1.00
 2019 209    41    40  24.5 -24.5 0.141   4.9  0.00  0.03  0.00  0.00 -0.06  0.00  0.00  0.00  0.00 77.19  1.00  79.9  1.04   0.0  1.00  1.00  1.00
 2019 210    42    41  23.9 -23.9 0.146   5.0  0.00  0.08  0.00  0.00 -0.06  0.00  0.01  0.00  0.00 79.77  1.00  78.3  0.98   0.0  1.00  1.00  1.00
 2019 211    43    42  24.5 -24.5 0.150   5.0  0.00  0.03  0.00  0.00 -0.06  0.00  0.00  0.00  0.00 79.30  1.00  75.4  0.95   0.0  1.00  1.00  1.00
 2019 212    44    43  24.8 -24.8 0.155   5.0  0.00  0.02  0.00  0.00 -0.06  0.00  0.00  0.00  0.00 60.64  1.00  77.0  1.27   0.0  1.00  1.00  1.00
 2019 213    45    44  25.3 -25.3 0.159   5.0  0.00  0.00  0.00  0.00 -0.06  0.00  0.00  0.00  0.00 57.24  1.00  78.4  1.37   0.0  1.00  1.00  1.00
 2019 214    46    45  24.8 -24.8 0.164   4.9  0.00  0.02  0.00  0.00 -0.06  0.00  0.00  0.00  0.00 84.37  1.00  85.0  1.01   0.0  1.00  1.00  1.00
 2019 215    47    46  24.4 -24.4 0.169   5.0  0.00  0.04  0.00  0.00 -0.06  0.00  0.00  0.00  0.00 69.05  1.00  87.0  1.26   0.0  1.00  1.00  1.00
 2019 216    48    47  24.1 -24.1 0.173   5.0  0.00  0.06  0.00  0.00 -0.06  0.00  0.00  0.00  0.00 69.48  1.00  85.5  1.23   0.0  1.00  1.00  1.00
 2019 217    49    48  23.1 -23.1 0.178   5.0  0.00  0.13  0.00  0.00 -0.06  0.00  0.08  0.00  0.00 99.90  1.00 104.1  0.77   0.0  1.00  1.00  1.00
 2019 218    50    49  23.8 -23.8 0.182   5.0  0.00  0.08  0.00  0.00 -0.06  0.00  0.02  0.00  0.00 99.90  1.00  98.8  0.92   0.0  1.00  1.00  1.00
 2019 219    51    50  24.0 -24.0 0.187   5.0  0.00  0.06  0.00  0.00 -0.06  0.00  0.00  0.00  0.00 99.90  1.00 101.3  0.52   0.0  1.00  1.00  1.00
 2019 220    52    51  24.0 -24.0 0.191   5.0  0.00  0.07  0.00  0.00 -0.06  0.00  0.00  0.00  0.00 99.90  1.00 108.6  1.07   0.0  1.00  1.00  1.00
 2019 221    53    52  24.2 -24.2 0.196   5.0  0.00  0.06  0.00  0.00 -0.06  0.00  0.00  0.00  0.00 70.55  1.00 102.0  1.45   0.0  1.00  1.00  1.00
 2019 222    54    53  24.4 -24.4 0.200   5.0  0.00  0.04  0.00  0.00 -0.06  0.00  0.00  0.00  0.00 67.53  1.00  93.7  1.39   0.0  1.00  1.00  1.00
 2019 223    55    54  24.2 -24.2 0.205   5.0  0.00  0.05  0.00  0.00 -0.06  0.00  0.00  0.00  0.00 70.36  1.00  87.1  1.24   0.0  1.00  1.00  1.00
 2019 224    56    55  24.3 -24.3 0.210   5.0  0.00  0.05  0.00  0.00 -0.06  0.00  0.00  0.00  0.00 88.61  1.00  83.6  0.94   0.0  1.00  1.00  1.00
 2019 225    57    56  25.0 -25.0 0.214   5.0  0.00  0.00  0.00  0.00 -0.06  0.00  0.00  0.00  0.00 40.57  1.00  78.0  1.92   0.0  1.00  1.00  1.00
 2019 226    58    57  24.6 -24.6 0.219   5.0  0.00  0.02  0.00  0.00 -0.06  0.00  0.00  0.00  0.00 44.14  1.00  74.8  1.69   0.0  1.00  1.00  1.00
 2019 227    59    58  24.0 -24.0 0.223   5.0  0.00  0.07  0.00  0.00 -0.06  0.00  0.00  0.00  0.00 65.45  1.00  76.7  1.17   0.0  1.00  1.00  1.00
 2019 228    60    59  24.4 -24.4 0.228   5.0  0.00  0.04  0.00  0.00 -0.06  0.00  0.00  0.00  0.00 60.90  1.00  78.6  1.29   0.0  1.00  1.00  1.00
 2019 229    61    60  23.5 -23.5 0.232   5.0  0.00  0.10  0.00  0.00 -0.06  0.00  0.04  0.00  0.00 48.98  1.00  85.4  1.74   0.0  1.00  1.00  1.00
 2019 230    62    61  24.8 -24.8 0.237   5.0  0.00  0.01  0.00  0.00 -0.06  0.00  0.00  0.00  0.00 54.16  1.00  86.3  1.59   0.0  1.00  1.00  1.00
 2019 231    63    62  22.4 -22.4 0.241   5.0  0.00  0.17  0.00  0.00 -0.06  0.00  0.13  0.00  0.00 99.90  1.00  98.5  0.86   0.0  1.00  1.00  1.00
 2019 232    64    63  23.7 -23.7 0.246   5.0  0.00  0.09  0.00  0.00 -0.06  0.00  0.02  0.00  0.00 66.70  1.00 103.4  1.55   0.0  1.00  1.00  1.00
 2019 233    65    64  24.2 -24.2 0.250   5.0  0.00  0.06  0.00  0.00 -0.06  0.00  0.00  0.00  0.00 92.80  1.00 114.1  1.23   0.0  1.00  1.00  1.00
 2019 234    66    65  24.4 -24.4 0.255   5.0  0.00  0.04  0.00  0.00 -0.06  0.00  0.00  0.00  0.00 54.84  1.00 118.7  2.17   0.0  1.00  1.00  1.00
 2019 235    67    66  23.8 -23.8 0.260   5.0  0.00  0.08  0.00  0.00 -0.06  0.00  0.02  0.00  0.00 61.34  1.00 123.5  2.01   0.0  1.00  1.00  1.00
 2019 236    68    67  23.1 -23.1 0.264   5.0  0.00  0.13  0.00  0.00 -0.06  0.00  0.08  0.00  0.00 82.39  1.00 114.5  1.39   0.0  1.00  1.00  1.00
 2019 237    69    68  24.0 -24.0 0.269   5.0  0.00  0.07  0.00  0.00 -0.06  0.00  0.00  0.00  0.00 55.84  1.00 104.9  1.88   0.0  1.00  1.00  1.00
 2019 238    70    69  23.8 -23.8 0.273   5.0  0.00  0.08  0.00  0.00 -0.06  0.00  0.02  0.00  0.00 46.33  1.00  96.9  2.09   0.0  1.00  1.00  1.00
 2019 239    71    70  24.5 -24.5 0.278   5.0  0.00  0.04  0.00  0.00 -0.06  0.00  0.00  0.00  0.00 99.90  1.00 121.4  1.06   0.0  1.00  1.00  1.00
 2019 240    72    71  24.4 -24.4 0.282   5.0  0.00  0.04  0.00  0.00 -0.06  0.00  0.00  0.00  0.00 49.38  1.00 120.4  2.44   0.0  1.00  1.00  1.00
 2019 241    73    72  24.5 -24.5 0.287   5.0  0.00  0.03  0.00  0.00 -0.06  0.00  0.00  0.00  0.00 54.77  1.00 114.4  2.09   0.0  1.00  1.00  1.00
 2019 242    74    73  25.1 -25.1 0.291   5.0  0.00  0.00  0.00  0.00 -0.06  0.00  0.00  0.00  0.00 38.04  1.00 108.5  2.85   0.0  1.00  1.00  1.00
 2019 243    75    74  25.8 -25.8 0.296   5.0  0.00  0.00  0.00  0.00 -0.06  0.00  0.00  0.00  0.00 53.21  1.00 104.5  1.96   0.0  1.00  1.00  1.00
 2019 244    76    75  24.4 -24.4 0.300   4.8  0.00  0.04  0.00  0.00 -0.06  0.00  0.00  0.00  0.00 45.59  1.00 102.4  2.25   0.0  1.00  1.00  1.00
 2019 245    77    76  25.0 -25.0 0.305   5.0  0.00  0.00  0.00  0.00 -0.06  0.00  0.00  0.00  0.00 41.98  1.00  96.9  2.31   0.0  1.00  1.00  1.00
 2019 246    78    77  25.5 -25.5 0.309   5.0  0.00  0.00  0.00  0.00 -0.06  0.00  0.00  0.00  0.00 39.46  1.00  95.2  2.41   0.0  1.00  1.00  1.00
 2019 247    79    78  24.7 -24.7 0.314   4.9  0.00  0.02  0.00  0.00 -0.06  0.00  0.00  0.00  0.00 40.67  1.00  99.1  2.44   0.0  1.00  1.00  1.00
 2019 248    80    79  25.2 -25.2 0.318   5.0  0.00  0.00  0.00  0.00 -0.06  0.00  0.00  0.00  0.00 45.56  1.00  99.2  2.18   0.0  1.00  1.00  1.00
 2019 249    81    80  25.3 -25.3 0.323   4.9  0.00  0.00  0.00  0.00 -0.06  0.00  0.00  0.00  0.00 30.41  1.00  97.0  3.19   0.0  1.00  1.00  1.00
 2019 250    82    81  25.3 -25.3 0.327   4.9  0.00  0.00  0.00  0.00 -0.06  0.00  0.00  0.00  0.00 32.96  1.00  96.1  2.92   0.0  1.00  1.00  1.00
 2019 251    83    82  23.6 -23.6 0.332   4.9  0.00  0.09  0.00  0.00 -0.06  0.00  0.03  0.00  0.00 41.35  1.00 100.9  2.44   0.0  1.00  1.00  1.00
 2019 252    84    83  24.6 -24.6 0.336   5.0  0.00  0.03  0.00  0.00 -0.06  0.00  0.00  0.00  0.00 45.45  1.00 122.3  2.69   0.0  1.00  1.00  1.00
 2019 253    85    84  24.6 -24.6 0.341   5.0  0.00  0.02  0.00  0.00 -0.06  0.00  0.00  0.00  0.00 52.87  1.00 120.6  2.28   0.0  1.00  1.00  1.00
 2019 254    86    85  24.0 -24.0 0.346   5.0  0.00  0.07  0.00  0.00 -0.06  0.00  0.00  0.00  0.00 39.27  1.00 117.6  3.00   0.0  1.00  1.00  1.00
 2019 255    87    86  25.1 -25.1 0.350   5.0  0.00  0.00  0.00  0.00 -0.06  0.00  0.00  0.00  0.00 34.01  1.00 110.6  3.25   0.0  1.00  1.00  1.00
 2019 256    88    87  24.7 -24.7 0.355   5.0  0.00  0.02  0.00  0.00 -0.06  0.00  0.00  0.00  0.00 35.75  1.00 110.2  3.08   0.0  1.00  1.00  1.00
 2019 257    89    88  24.8 -24.8 0.359   5.0  0.00  0.01  0.00  0.00 -0.06  0.00  0.00  0.00  0.00 51.73  1.00 137.1  2.65   0.0  1.00  1.00  1.00
 2019 258    90    89  24.4 -24.4 0.364   5.0  0.00  0.04  0.00  0.00 -0.06  0.00  0.00  0.00  0.00 54.71  1.00 148.5  2.71   0.0  1.00  1.00  1.00
 2019 259    91    90  25.3 -25.3 0.368   5.0  0.00  0.00  0.00  0.00 -0.06  0.00  0.00  0.00  0.00 64.77  1.00 141.6  2.19   0.0  1.00  1.00  1.00
 2019 260    92    91  25.3 -25.3 0.373   4.9  0.00  0.00  0.00  0.00 -0.06  0.00  0.00  0.00  0.00 41.11  1.00 133.6  3.25   0.0  1.00  1.00  1.00
 2019 261    93    92  24.1 -24.1 0.377   4.9  0.00  0.06  0.00  0.00 -0.06  0.00  0.00  0.00  0.00 48.16  1.00 131.4  2.73   0.0  1.00  1.00  1.00
 2019 262    94    93  25.0 -25.0 0.382   5.0  0.00  0.00  0.00  0.00 -0.06  0.00  0.00  0.00  0.00 46.70  1.00 131.5  2.81   0.0  1.00  1.00  1.00
 2019 263    95    94  25.1 -25.1 0.386   5.0  0.00  0.00  0.00  0.00 -0.06  0.00  0.00  0.00  0.00 40.30  1.00 137.5  3.41   0.0  1.00  1.00  1.00
 2019 264    96    95  25.6 -25.6 0.391   5.0  0.00  0.00  0.00  0.00 -0.06  0.00  0.00  0.00  0.00 39.60  1.00 133.3  3.37   0.0  1.00  1.00  1.00
 2019 265    97    96  25.7 -25.7 0.395   4.8  0.00  0.00  0.00  0.00 -0.06  0.00  0.00  0.00  0.00 33.22  1.00 128.1  3.86   0.0  1.00  1.00  1.00
 2019 266    98    97  25.5 -25.5 0.400   4.8  0.00  0.00  0.00  0.00 -0.06  0.00  0.00  0.00  0.00 37.46  1.00 121.2  3.23   0.0  1.00  1.00  1.00
 2019 267    99    98  26.2 -26.2 0.404   4.9  0.00  0.00  0.00  0.00 -0.06  0.00  0.00  0.00  0.00 30.33  1.00 115.0  3.79   0.0  1.00  1.00  1.00
 2019 268   100    99  26.2 -26.2 0.408   4.7  0.00  0.00  0.00  0.00 -0.06  0.00  0.00  0.00  0.00 32.25  1.00 112.3  3.48   0.0  1.00  1.00  1.00
 2019 269   101   100  24.5 -24.5 0.413   4.7  0.00  0.03  0.00  0.00 -0.06  0.00  0.00  0.00  0.00 43.36  1.00 115.9  2.67   0.0  1.00  1.00  1.00
 2019 270   102   101  24.6 -24.6 0.417   5.0  0.00  0.02  0.00  0.00 -0.06  0.00  0.00  0.00  0.00 42.72  1.00 131.0  3.07   0.0  1.00  1.00  1.00
 2019 271   103   102  24.8 -24.8 0.422   5.0  0.00  0.01  0.00  0.00 -0.06  0.00  0.00  0.00  0.00 30.52  1.00 126.1  4.13   0.0  1.00  1.00  1.00
 2019 272   104   103  25.0 -25.0 0.426   5.0  0.00  0.00  0.00  0.00 -0.06  0.00  0.00  0.00  0.00 44.98  1.00 124.9  2.78   0.0  1.00  1.00  1.00
 2019 273   105   104  24.6 -24.6 0.431   5.0  0.00  0.03  0.00  0.00 -0.06  0.00  0.00  0.00  0.00 38.90  1.00 125.6  3.23   0.0  1.00  1.00  1.00
 2019 274   106   105  24.4 -24.4 0.435   5.0  0.00  0.04  0.00  0.00 -0.06  0.00  0.00  0.00  0.00 50.13  1.00 128.0  2.55   0.0  1.00  1.00  1.00
 2019 275   107   106  24.5 -24.5 0.440   5.0  0.00  0.04  0.00  0.00 -0.06  0.00  0.00  0.00  0.00 52.60  1.00 131.4  2.50   0.0  1.00  1.00  1.00
 2019 276   108   107  25.5 -25.5 0.444   5.0  0.00  0.00  0.00  0.00 -0.06  0.00  0.00  0.00  0.00 43.56  1.00 127.4  2.92   0.0  1.00  1.00  1.00
 2019 277   109   108  24.2 -24.2 0.449   4.9  0.00  0.06  0.00  0.00 -0.06  0.00  0.00  0.00  0.00 34.08  1.00 123.5  3.62   0.0  1.00  1.00  1.00
 2019 278   110   109  25.0 -25.0 0.453   5.0  0.00  0.00  0.00  0.00 -0.06  0.00  0.00  0.00  0.00 37.70  1.00 119.2  3.16   0.0  1.00  1.00  1.00
 2019 279   111   110  24.6 -24.6 0.458   5.0  0.00  0.03  0.00  0.00 -0.06  0.00  0.00  0.00  0.00 45.12  1.00 126.4  2.80   0.0  1.00  1.00  1.00
 2019 280   112   111  23.5 -23.5 0.463   5.0  0.00  0.10  0.00  0.00 -0.06  0.00  0.04  0.00  0.00 48.57  1.00 136.6  2.81   0.0  1.00  1.00  1.00
 2019 281   113   112  23.9 -23.9 0.467   5.0  0.00  0.07  0.00  0.00 -0.06  0.00  0.01  0.00  0.00 58.27  1.00 138.3  2.37   0.0  1.00  1.00  1.00
 2019 282   114   113  24.0 -24.0 0.472   5.0  0.00  0.07  0.00  0.00 -0.06  0.00  0.00  0.00  0.00 38.41  1.00 135.1  3.52   0.0  1.00  1.00  1.00
 2019 283   115   114  24.9 -24.9 0.476   5.0  0.00  0.01  0.00  0.00 -0.06  0.00  0.00  0.00  0.00 40.14  1.00 141.5  3.53   0.0  1.00  1.00  1.00
 2019 284   116   115  25.4 -25.4 0.481   5.0  0.00  0.00  0.00  0.00 -0.06  0.00  0.00  0.00  0.00 42.19  1.00 155.1  3.68   0.0  1.00  1.00  1.00
 2019 285   117   116  24.8 -24.8 0.485   4.9  0.00  0.02  0.00  0.00 -0.06  0.00  0.00  0.00  0.00 43.75  1.00 149.8  3.43   0.0  1.00  1.00  1.00
 2019 286   118   117  25.4 -25.4 0.490   5.0  0.00  0.00  0.00  0.00 -0.06  0.00  0.00  0.00  0.00 39.71  1.00 145.9  3.67   0.0  1.00  1.00  1.00
 2019 287   119   118  25.9 -25.9 0.494   4.9  0.00  0.00  0.00  0.00 -0.06  0.00  0.00  0.00  0.00 34.68  1.00 141.9  4.09   0.0  1.00  1.00  1.00
 2019 288   120   119  25.1 -25.1 0.499   4.7  0.00  0.00  0.00  0.00 -0.06  0.00  0.00  0.00  0.00 40.76  1.00 144.2  3.54   0.0  1.00  1.00  1.00
 2019 289   121   120  24.9 -24.9 0.503   5.0  0.00  0.01  0.00  0.00 -0.06  0.00  0.00  0.00  0.00 96.39  1.00 157.0  1.63   0.0  1.00  1.00  1.00
 2019 290   122   121  24.6 -24.6 0.508   5.0  0.00  0.03  0.00  0.00 -0.06  0.00  0.00  0.00  0.00 43.09  1.00 160.8  3.73   0.0  1.00  1.00  1.00
 2019 291   123   122  24.2 -24.2 0.512   5.0  0.00  0.05  0.00  0.00 -0.06  0.00  0.00  0.00  0.00 46.00  1.00 156.6  3.40   0.0  1.00  1.00  1.00
 2019 292   124   123  23.9 -23.9 0.517   5.0  0.00  0.08  0.00  0.00 -0.06  0.00  0.01  0.00  0.00 53.23  1.00 152.6  2.87   0.0  1.00  1.00  1.00
 2019 293   125   124  23.3 -23.3 0.521   5.0  0.00  0.11  0.00  0.00 -0.06  0.00  0.06  0.00  0.00 39.96  1.00 147.4  3.69   0.0  1.00  1.00  1.00
 2019 294   126   125  25.0 -25.0 0.526   5.0  0.00  0.00  0.00  0.00 -0.06  0.00  0.00  0.00  0.00 48.69  1.00 141.2  2.90   0.0  1.00  1.00  1.00
 2019 295   127   126  25.8 -25.8 0.530   5.0  0.00  0.00  0.00  0.00 -0.06  0.00  0.00  0.00  0.00 35.57  1.00 134.7  3.79   0.0  1.00  1.00  1.00
 2019 296   128   127  25.8 -25.8 0.535   4.8  0.00  0.00  0.00  0.00 -0.06  0.00  0.00  0.00  0.00 36.61  1.00 136.9  3.74   0.0  1.00  1.00  1.00
 2019 297   129   128  24.6 -24.6 0.539   4.8  0.00  0.03  0.00  0.00 -0.06  0.00  0.00  0.00  0.00 99.90  1.00 152.4  1.52   0.0  1.00  1.00  1.00
 2019 298   130   129  24.8 -24.8 0.544   5.0  0.00  0.02  0.00  0.00 -0.06  0.00  0.00  0.00  0.00 45.46  1.00 165.1  3.63   0.0  1.00  1.00  1.00
 2019 299   131   130  24.6 -24.6 0.548   5.0  0.00  0.02  0.00  0.00 -0.06  0.00  0.00  0.00  0.00 59.35  1.00 171.6  2.89   0.0  1.00  1.00  1.00
 2019 300   132   131  24.0 -24.0 0.553   5.0  0.00  0.07  0.00  0.00 -0.06  0.00  0.00  0.00  0.00 76.90  1.00 199.8  2.60   0.0  1.00  1.00  1.00
 2019 301   133   132  23.6 -23.6 0.557   5.0  0.00  0.09  0.00  0.00 -0.06  0.00  0.03  0.00  0.00 61.35  1.00 188.6  3.07   0.0  1.00  1.00  1.00
 2019 302   134   133  23.3 -23.3 0.562   5.0  0.00  0.11  0.00  0.00 -0.06  0.00  0.06  0.00  0.00 62.20  1.00 178.1  2.86   0.0  1.00  1.00  1.00
 2019 303   135   134  25.1 -25.1 0.566   5.0  0.00  0.00  0.00  0.00 -0.06  0.00  0.00  0.00  0.00 40.39  1.00 165.6  4.10   0.0  1.00  1.00  1.00
 2019 304   136   135  25.0 -25.0 0.571   5.0  0.00  0.00  0.00  0.00 -0.06  0.00  0.00  0.00  0.00 41.21  1.00 154.7  3.76   0.0  1.00  1.00  1.00
 2019 305   137   136  25.6 -25.6 0.575   5.0  0.00  0.00  0.00  0.00 -0.06  0.00  0.00  0.00  0.00 31.89  1.00 144.6  4.53   0.0  1.00  1.00  1.00
 2019 306   138   137  24.2 -24.2 0.580   4.8  0.00  0.05  0.00  0.00 -0.06  0.00  0.00  0.00  0.00 37.70  1.00 141.5  3.75   0.0  1.00  1.00  1.00
 2019 307   139   138  26.2 -26.2 0.584   5.0  0.00  0.00  0.00  0.00 -0.06  0.00  0.00  0.00  0.00 36.22  1.00 136.0  3.76   0.0  1.00  1.00  1.00
 2019 308   140   139  26.2 -26.2 0.589   4.7  0.00  0.00  0.00  0.00 -0.06  0.00  0.00  0.00  0.00 26.41  1.00 129.1  4.89   0.0  1.00  1.00  1.00
 2019 309   141   140  26.2 -26.2 0.593   4.7  0.00  0.00  0.00  0.00 -0.06  0.00  0.00  0.00  0.00 26.14  1.00 123.6  4.73   0.0  1.00  1.00  1.00
 2019 310   142   141  26.4 -26.4 0.597   4.7  0.00  0.00  0.00  0.00 -0.06  0.00  0.00  0.06  0.00 24.84  1.00 119.1  4.79   0.0  1.00  1.00  1.00
 2019 311   143   142  26.2 -26.2 0.600   4.6  0.00  0.00  0.00  0.00 -0.06  0.00  0.00  0.19  0.00 24.67  1.00 115.1  4.67   0.0  1.00  1.00  1.00
 2019 312   144   143  25.9 -25.9 0.603   4.7  0.00  0.00  0.00  0.00 -0.06  0.00  0.00  0.30  0.00 23.57  1.00 113.1  4.80   0.0  1.00  1.00  1.00
 2019 313   145   144  25.0 -25.0 0.606   4.8  0.00  0.00  0.05  0.00 -0.06  0.00  0.00  0.36  0.00 26.00  1.00 111.9  4.30   0.0  1.00  1.00  1.00
 2019 314   146   145  26.4 -26.4 0.609   5.0  0.00  0.00  0.11  0.00 -0.06  0.00  0.00  0.41  0.00 29.78  1.00 111.3  3.74   0.0  1.00  1.00  1.00
 2019 315   147   146  26.1 -26.1 0.611   4.6  0.00  0.00  0.16  0.00 -0.06  0.00  0.00  0.44  0.00 28.91  1.00 111.3  3.85   0.0  1.00  1.00  1.00
 2019 316   148   147  25.8 -25.8 0.613   4.7  0.00  0.00  0.17  0.00 -0.06  0.00  0.00  0.45  0.00 32.07  1.00 124.9  3.89   0.0  1.00  1.00  1.00
 2019 317   149   148  25.9 -25.9 0.617   4.8  0.00  0.00  0.00  0.00 -0.06  0.00  0.00  0.16  0.00 43.44  1.00 137.8  3.17   0.0  1.00  1.00  1.00
 2019 318   150   149  26.5 -26.5 0.621   4.7  0.00  0.00  0.00  0.00 -0.06  0.00  0.00  0.00  0.00 38.36  1.00 135.6  3.53   0.0  1.00  1.00  1.00
 2019 319   151   150  26.1 -26.1 0.626   4.6  0.00  0.00  0.00  0.00 -0.06  0.00  0.00  0.00  0.00 31.26  1.00 131.9  4.22   0.0  1.00  1.00  1.00
 2019 320   152   151  26.4 -26.4 0.630   4.7  0.00  0.00  0.00  0.00 -0.06  0.00  0.00  0.00  0.00 27.25  1.00 127.6  4.68   0.0  1.00  1.00  1.00
 2019 321   153   152  26.1 -26.1 0.634   4.6  0.00  0.00  0.00  0.00 -0.06  0.00  0.00  0.09  0.00 26.33  1.00 123.2  4.68   0.0  1.00  1.00  1.00
 2019 322   154   153  26.0 -26.0 0.637   4.7  0.00  0.00  0.00  0.00 -0.06  0.00  0.00  0.25  0.00 25.56  1.00 119.6  4.68   0.0  1.00  1.00  1.00
 2019 323   155   154  26.4 -26.4 0.640   4.7  0.00  0.00  0.07  0.00 -0.06  0.00  0.00  0.38  0.00 25.36  1.00 118.3  4.66   0.0  1.00  1.00  1.00
 2019 324   156   155  26.8 -26.8 0.642   4.6  0.00  0.00  0.16  0.00 -0.06  0.00  0.00  0.44  0.00 33.29  1.00 117.5  3.53   0.0  1.00  1.00  1.00
 2019 325   157   156  26.4 -26.4 0.644   4.5  0.00  0.00  0.23  0.00 -0.06  0.00  0.00  0.49  0.00 38.58  1.00 117.2  3.04   0.0  1.00  1.00  1.00
 2019 326   158   157  26.0 -26.0 0.646   4.6  0.00  0.00  0.28  0.00 -0.06  0.00  0.00  0.52  0.00 32.30  1.00 117.2  3.63   0.0  1.00  1.00  1.00
 2019 327   159   158  26.9 -26.9 0.648   4.7  0.00  0.00  0.32  0.00 -0.06  0.00  0.00  0.55  0.00 28.64  1.00 117.3  4.10   0.0  1.00  1.00  1.00
 2019 328   160   159  26.5 -26.5 0.650   4.5  0.00  0.00  0.35  0.00 -0.06  0.00  0.00  0.56  0.00 24.72  1.00 117.5  4.75   0.0  1.00  1.00  1.00
 2019 329   161   160  25.5 -25.5 0.651   4.6  0.00  0.00  0.37  0.00 -0.06  0.00  0.00  0.58  0.00 25.10  1.00 117.7  4.69   0.0  1.00  1.00  1.00
 2019 330   162   161  26.1 -26.1 0.653   4.8  0.00  0.00  0.40  0.00 -0.06  0.00  0.00  0.60  0.00 25.29  1.00 118.0  4.67   0.0  1.00  1.00  1.00
 2019 331   163   162  24.9 -24.9 0.655   4.7  0.00  0.01  0.42  0.00 -0.06  0.00  0.00  0.62  0.00 25.61  1.00 118.3  4.62   0.0  1.00  1.00  1.00
 2019 332   164   163  23.9 -23.9 0.657   5.0  0.00  0.07  0.45  0.00 -0.06  0.00  0.01  0.63  0.00 26.33  1.00 118.6  4.50   0.0  1.00  1.00  1.00
 2019 333   165   164  24.3 -24.3 0.658   5.0  0.00  0.05  0.47  0.00 -0.06  0.00  0.00  0.65  0.00 26.32  1.00 118.9  4.52   0.0  1.00  1.00  1.00
 2019 334   166   165  24.6 -24.6 0.660   5.0  0.00  0.02  0.49  0.00 -0.06  0.00  0.00  0.66  0.00 26.28  1.00 119.3  4.54   0.0  1.00  1.00  1.00
 2019 335   167   166  23.8 -23.8 0.661   5.0  0.00  0.08  0.51  0.00 -0.06  0.00  0.02  0.67  0.00 28.12  1.00 119.7  4.26   0.0  1.00  1.00  1.00
 2019 336   168   167  24.1 -24.1 0.663   5.0  0.00  0.06  0.53  0.00 -0.06  0.00  0.00  0.69  0.00 27.44  1.00 120.1  4.38   0.0  1.00  1.00  1.00
 2019 337   169   168  24.5 -24.5 0.664   5.0  0.00  0.04  0.55  0.00 -0.06  0.00  0.00  0.70  0.00 33.22  1.00 120.5  3.63   0.0  1.00  1.00  1.00
 2019 338   170   169  24.2 -24.2 0.665   5.0  0.00  0.05  0.56  0.00 -0.06  0.00  0.00  0.71  0.00 30.61  1.00 120.8  3.95   0.0  1.00  1.00  1.00
 2019 339   171   170  24.8 -24.8 0.667   5.0  0.00  0.01  0.58  0.00 -0.06  0.00  0.00  0.72  0.00 27.95  1.00 121.2  4.34   0.0  1.00  1.00  1.00
 2019 340   172   171  23.7 -23.7 0.668   5.0  0.00  0.09  0.60  0.00 -0.06  0.00  0.02  0.73  0.00 27.46  1.00 121.7  4.43   0.0  1.00  1.00  1.00
 2019 341   173   172  23.2 -23.2 0.669   5.0  0.00  0.12  0.62  0.00 -0.06  0.00  0.06  0.74  0.00 27.76  1.00 122.1  4.40   0.0  1.00  1.00  1.00
 2019 342   174   173  24.1 -24.1 0.670   5.0  0.00  0.06  0.63  0.00 -0.06  0.00  0.00  0.76  0.00 27.66  1.00 122.6  4.43   0.0  1.00  1.00  1.00
 2019 343   175   174  23.2 -23.2 0.671   5.0  0.00  0.12  0.65  0.00 -0.06  0.00  0.06  0.77  0.00 27.74  1.00 123.0  4.43   0.0  1.00  1.00  1.00
 2019 344   176   175  22.8 -22.8 0.672   5.0  0.00  0.15  0.67  0.00 -0.06  0.00  0.10  0.78  0.00 28.95  1.00 123.5  4.27   0.0  1.00  1.00  1.00
 2019 345   177   176  23.9 -23.9 0.673   5.0  0.00  0.07  0.68  0.00 -0.06  0.00  0.01  0.79  0.00 28.91  1.00 124.0  4.29   0.0  1.00  1.00  1.00
 2019 346   178   177  23.5 -23.5 0.674   5.0  0.00  0.10  0.70  0.00 -0.06  0.00  0.05  0.80  0.00 29.16  1.00 124.4  4.27   0.0  1.00  1.00  1.00
 2019 347   179   178  23.2 -23.2 0.675   5.0  0.00  0.12  0.71  0.00 -0.06  0.00  0.06  0.81  0.00 28.86  1.00 124.9  4.33   0.0  1.00  1.00  1.00
 2019 348   180   179  23.2 -23.2 0.676   5.0  0.00  0.12  0.73  0.00 -0.06  0.00  0.07  0.82  0.00 33.19  1.00 125.4  3.78   0.0  1.00  1.00  1.00
 2019 349   181   180  23.4 -23.4 0.677   5.0  0.00  0.11  0.74  0.00 -0.06  0.00  0.05  0.83  0.00 31.52  1.00 125.8  3.99   0.0  1.00  1.00  1.00
 2019 350   182   181  23.6 -23.6 0.677   5.0  0.00  0.09  0.76  0.00 -0.06  0.00  0.03  0.84  0.00 29.90  1.00 126.3  4.22   0.0  1.00  1.00  1.00
 2019 351   183   182  24.4 -24.4 0.678   5.0  0.00  0.04  0.77  0.00 -0.06  0.00  0.00  0.85  0.00 29.77  1.00 126.8  4.26   0.0  1.00  1.00  1.00
 2019 352   184   183  25.1 -25.1 0.679   5.0  0.00  0.00  0.79  0.00 -0.06  0.00  0.00  0.86  0.00 31.70  1.00 127.4  4.02   0.0  1.00  1.00  1.00
 2019 353   185   184  25.0 -25.0 0.679   5.0  0.00  0.00  0.80  0.00 -0.06  0.00  0.00  0.86  0.00 30.44  1.00 127.9  4.20   0.0  1.00  1.00  1.00
 2019 354   186   185  23.7 -23.7 0.680   5.0  0.00  0.09  0.81  0.00 -0.06  0.00  0.02  0.87  0.00 30.63  1.00 128.5  4.20   0.0  1.00  1.00  1.00
 2019 355   187   186  22.9 -22.9 0.680   5.0  0.00  0.14  0.82  0.00 -0.06  0.00  0.09  0.88  0.00 31.15  1.00 129.1  4.15   0.0  1.00  1.00  1.00
 2019 356   188   187  23.3 -23.3 0.681   5.0  0.00  0.11  0.83  0.00 -0.06  0.00  0.05  0.89  0.00 30.23  1.00 129.7  4.29   0.0  1.00  1.00  1.00
 2019 357   189   188  22.9 -22.9 0.681   5.0  0.00  0.14  0.84  0.00 -0.06  0.00  0.10  0.89  0.00 30.33  1.00 130.3  4.30   0.0  1.00  1.00  1.00
 2019 358   190   189  23.4 -23.4 0.682   5.0  0.00  0.11  0.85  0.00 -0.06  0.00  0.05  0.90  0.00 30.22  1.00 130.9  4.33   0.0  1.00  1.00  1.00
 2019 359   191   190  23.6 -23.6 0.682   5.0  0.00  0.09  0.86  0.00 -0.06  0.00  0.03  0.91  0.00 30.65  1.00 131.4  4.29   0.0  1.00  1.00  1.00
 2019 360   192   191  23.5 -23.5 0.683   5.0  0.00  0.10  0.88  0.00 -0.06  0.00  0.04  0.92  0.00 32.15  1.00 132.0  4.10   0.0  1.00  1.00  1.00
 2019 361   193   192  23.4 -23.4 0.683   5.0  0.00  0.11  0.89  0.00 -0.06  0.00  0.05  0.92  0.00 34.62  1.00 132.5  3.83   0.0  1.00  1.00  1.00
 2019 362   194   193  23.1 -23.1 0.683   5.0  0.00  0.13  0.90  0.00 -0.06  0.00  0.08  0.93  0.00 32.63  1.00 133.1  4.08   0.0  1.00  1.00  1.00
 2019 363   195   194  22.6 -22.6 0.684   5.0  0.00  0.16  0.91  0.00 -0.06  0.00  0.11  0.94  0.00 32.49  1.00 133.6  4.11   0.0  1.00  1.00  1.00
 2019 364   196   195  22.4 -22.4 0.684   5.0  0.00  0.18  0.93  0.00 -0.06  0.00  0.14  0.95  0.00 32.66  1.00 134.0  4.10   0.0  1.00  1.00  1.00
 2019 365   197   196  23.0 -23.0 0.684   5.0  0.00  0.14  0.94  0.00 -0.06  0.00  0.09  0.96  0.00 32.23  1.00 134.6  4.17   0.0  1.00  1.00  1.00
 2020   1   198   197  22.8 -22.8 0.684   5.0  0.00  0.15  0.95  0.00 -0.06  0.00  0.10  0.97  0.00 34.17  1.00 134.7  3.94   0.0  1.00  1.00  1.00
 2020   2   199   198  21.2 -21.2 0.684   5.0  0.00  0.25  0.97  0.00 -0.06  0.00  0.23  0.98  0.00 37.32  1.00 134.2  3.59   0.0  1.00  1.00  1.00
 2020   3   200   199  21.7 -21.7 0.684   4.2  0.00  0.22  0.98  0.00 -0.06  0.00  0.19  0.99  0.00 35.80  1.00 133.5  3.73   0.0  1.00  1.00  1.00
 2020   4   201   200  22.4 -22.4 0.684   4.7  0.00  0.18  1.00  0.00 -0.06  0.00  0.14  1.00  0.00 39.04  1.00 133.4  3.42   0.0  1.00  1.00  1.00
 2020   5   202   201  23.4 -23.4 0.684   5.0  0.00  0.11  1.00  0.00 -0.06  0.00  0.05  1.00  0.00 42.14  1.00 133.4  3.17   0.0  1.00  1.00  1.00
 2020   6   203   202  25.2 -25.2 0.684   5.0  0.00  0.00  1.00  0.00 -0.06  0.00  0.00  1.00  0.00 41.07  1.00 133.4  3.25   0.0  1.00  1.00  1.00
 2020   7   204   203  24.8 -24.8 0.684   4.9  0.00  0.01  1.00  0.00 -0.06  0.00  0.00  1.00  0.00 41.15  1.00 133.4  3.24   0.0  1.00  1.00  1.00
 2020   8   205   204  25.2 -25.2 0.684   5.0  0.00  0.00  1.00  0.00 -0.06  0.00  0.00  1.00  0.00 35.74  1.00 133.4  3.73   0.0  1.00  1.00  1.00
 2020   9   206   205  25.2 -25.2 0.684   5.0  0.00  0.00  1.00  0.00 -0.06  0.00  0.00  1.00  0.00 33.99  1.00 133.4  3.92   0.0  1.00  1.00  1.00
 2020  10   207   206  25.4 -25.4 0.684   4.9  0.00  0.00  1.00  0.00 -0.06  0.00  0.00  1.00  0.00 37.49  1.00 133.3  3.56   0.0  1.00  1.00  1.00
 2020  11   208   207  25.0 -25.0 0.684   4.9  0.00  0.00  1.00  0.00 -0.06  0.00  0.00  1.00  0.00 37.60  1.00 133.3  3.55   0.0  1.00  1.00  1.00
 2020  12   209   208  25.0 -25.0 0.684   5.0  0.00  0.00  1.00  0.00 -0.06  0.00  0.00  1.00  0.00 42.95  1.00 133.3  3.10   0.0  1.00  1.00  1.00
 2020  13   210   209  26.2 -26.2 0.684   5.0  0.00  0.00  1.00  0.00 -0.06  0.00  0.00  1.00  0.00 34.67  1.00 133.3  3.84   0.0  1.00  1.00  1.00
 2020  14   211   210  26.0 -26.0 0.684   4.7  0.00  0.00  1.00  0.00 -0.06  0.00  0.00  1.00  0.00 35.46  1.00 133.3  3.76   0.0  1.00  1.00  1.00
 2020  15   212   211  26.4 -26.4 0.684   4.7  0.00  0.00  1.00  0.00 -0.06  0.00  0.00  1.00  0.00 35.43  1.00 133.3  3.76   0.0  1.00  1.00  1.00
 2020  16   213   212  24.5 -24.5 0.684   4.6  0.00  0.03  1.00  0.00 -0.06  0.00  0.00  1.00  0.00 37.95  1.00 133.2  3.51   0.0  1.00  1.00  1.00
 2020  17   214   213  24.5 -24.5 0.684   5.0  0.00  0.03  1.00  0.00 -0.06  0.00  0.00  1.00  0.00 38.17  1.00 133.2  3.49   0.0  1.00  1.00  1.00
 2020  18   215   214  24.0 -24.0 0.684   5.0  0.00  0.07  1.00  0.00 -0.06  0.00  0.00  1.00  0.00 42.47  1.00 133.2  3.14   0.0  1.00  1.00  1.00
 2020  19   216   215  24.4 -24.4 0.684   5.0  0.00  0.04  1.00  0.00 -0.06  0.00  0.00  1.00  0.00 46.18  1.00 133.2  2.88   0.0  1.00  1.00  1.00
 2020  20   217   216  25.2 -25.2 0.684   5.0  0.00  0.00  1.00  0.00 -0.06  0.00  0.00  1.00  0.00 47.89  1.00 133.2  2.78   0.0  1.00  1.00  1.00
 2020  21   218   217  25.6 -25.6 0.684   4.9  0.00  0.00  1.00  0.00 -0.06  0.00  0.00  1.00  0.00 42.73  1.00 133.2  3.12   0.0  1.00  1.00  1.00
 2020  22   219   218  26.7 -26.7 0.684   4.8  0.00  0.00  1.00  0.00 -0.06  0.00  0.00  1.00  0.00 38.84  1.00 133.2  3.43   0.0  1.00  1.00  1.00
 2020  23   220   219  25.4 -25.4 0.684   4.5  0.00  0.00  1.00  0.00 -0.06  0.00  0.00  1.00  0.00 45.53  1.00 133.1  2.92   0.0  1.00  1.00  1.00
 2020  24   221   220  23.8 -23.8 0.684   4.9  0.00  0.08  1.00  0.00 -0.06  0.00  0.02  1.00  0.00 39.50  1.00 133.1  3.37   0.0  1.00  1.00  1.00
 2020  25   222   221  23.2 -23.2 0.684   5.0  0.00  0.12  1.00  0.00 -0.06  0.00  0.07  1.00  0.00 42.56  1.00 133.1  3.13   0.0  1.00  1.00  1.00
 2020  26   223   222  23.6 -23.6 0.684   5.0  0.00  0.09  1.00  0.00 -0.06  0.00  0.03  1.00  0.00 43.94  1.00 133.1  3.03   0.0  1.00  1.00  1.00
 2020  27   224   223  24.0 -24.0 0.684   5.0  0.00  0.06  1.00  0.00 -0.06  0.00  0.00  1.00  0.00 45.87  1.00 133.1  2.90   0.0  1.00  1.00  1.00
 2020  28   225   224  24.5 -24.5 0.684   5.0  0.00  0.04  1.00  0.00 -0.06  0.00  0.00  1.00  0.00 47.77  1.00 133.1  2.79   0.0  1.00  1.00  1.00
 2020  29   226   225  25.3 -25.3 0.684   5.0  0.00  0.00  1.00  0.00 -0.06  0.00  0.00  1.00  0.00 56.14  1.00 133.0  2.37   0.0  1.00  1.00  1.00
 2020  30   227   226  25.3 -25.3 0.684   4.9  0.00  0.00  1.00  0.00 -0.06  0.00  0.00  1.00  0.00 46.64  1.00 133.0  2.85   0.0  1.00  1.00  1.00
 2020  31   228   227  25.2 -25.2 0.684   4.9  0.00  0.00  1.00  0.00 -0.06  0.00  0.00  1.00  0.00 48.92  1.00 133.0  2.72   0.0  1.00  1.00  1.00
 2020  32   229   228  25.0 -25.0 0.684   5.0  0.00  0.00  1.00  0.00 -0.06  0.00  0.00  1.00  0.00 49.95  1.00 133.0  2.66   0.0  1.00  1.00  1.00
 2020  33   230   229  25.6 -25.6 0.684   5.0  0.00  0.00  1.00  0.00 -0.06  0.00  0.00  1.00  0.00 52.79  1.00 133.0  2.52   0.0  1.00  1.00  1.00
 2020  34   231   230  25.1 -25.1 0.684   4.8  0.00  0.00  1.00  0.00 -0.06  0.00  0.00  1.00  0.00 56.14  1.00 133.0  2.37   0.0  1.00  1.00  1.00
 2020  35   232   231  24.5 -24.5 0.684   5.0  0.00  0.03  1.00  0.00 -0.06  0.00  0.00  1.00  0.00 58.79  1.00 133.0  2.26   0.0  1.00  1.00  1.00
 2020  36   233   232  25.0 -25.0 0.684   5.0  0.00  0.00  1.00  0.00 -0.06  0.00  0.00  1.00  0.00 58.02  1.00 132.9  2.29   0.0  1.00  1.00  1.00
 2020  37   234   233  25.2 -25.2 0.684   5.0  0.00  0.00  1.00  0.00 -0.06  0.00  0.00  1.00  0.00 61.70  1.00 132.9  2.15   0.0  1.00  1.00  1.00
 2020  38   235   234  26.7 -26.7 0.684   4.9  0.00  0.00  1.00  0.00 -0.06  0.00  0.00  1.00  0.00 55.44  1.00 132.9  2.40   0.0  1.00  1.00  1.00
 2020  39   236   235  27.8 -27.8 0.684   4.5  0.00  0.00  1.00  0.00 -0.06  0.00  0.00  1.00  0.00 53.31  1.00 132.9  2.49   0.0  1.00  1.00  1.00
 2020  40   237   236  27.0 -27.0 0.684   4.2  0.00  0.00  1.00  0.00 -0.06  0.00  0.00  1.00  0.00 60.58  1.00 132.9  2.19   0.0  1.00  1.00  1.00
 2020  41   238   237  27.3 -27.3 0.684   4.4  0.00  0.00  1.00  0.00 -0.06  0.00  0.00  1.00  0.00 76.47  1.00 132.9  1.74   0.0  1.00  1.00  1.00
 2020  42   239   238  27.4 -27.4 0.684   4.3  0.00  0.00  1.00  0.00 -0.06  0.00  0.00  1.00  0.00 70.71  1.00 132.8  1.88   0.0  1.00  1.00  1.00
 2020  43   240   239  26.0 -26.0 0.684   4.3  0.00  0.00  1.00  0.00 -0.06  0.00  0.00  1.00  0.00 86.27  1.00 132.8  1.54   0.0  1.00  1.00  1.00
 2020  44   241   240  26.4 -26.4 0.684   4.7  0.00  0.00  1.00  0.00 -0.06  0.00  0.00  1.00  0.00 82.89  1.00 132.8  1.60   0.0  1.00  1.00  1.00
 2020  45   242   241  26.7 -26.7 0.684   4.6  0.00  0.00  1.00  0.00 -0.06  0.00  0.00  1.00  0.00 81.63  1.00 132.8  1.63   0.0  1.00  1.00  1.00
 2020  46   243   242  27.0 -27.0 0.684   4.5  0.00  0.00  1.00  0.00 -0.06  0.00  0.00  1.00  0.00 68.94  1.00 132.8  1.93   0.0  1.00  1.00  1.00
 2020  47   244   243  27.3 -27.3 0.684   4.4  0.00  0.00  1.00  0.00 -0.06  0.00  0.00  1.00  0.00 70.65  1.00 132.8  1.88   0.0  1.00  1.00  1.00
 2020  48   245   244  27.8 -27.8 0.684   4.3  0.00  0.00  1.00  0.00 -0.06  0.00  0.00  1.00  0.00 76.72  1.00 132.8  1.73   0.0  1.00  1.00  1.00
 2020  49   246   245  27.2 -27.2 0.684   4.2  0.00  0.00  1.00  0.00 -0.06  0.00  0.00  1.00  0.00 97.77  1.00 132.7  1.36   0.0  1.00  1.00  1.00
 2020  50   247   246  26.6 -26.6 0.684   4.4  0.00  0.00  1.00  0.00 -0.06  0.00  0.00  1.00  0.00 99.90  1.00 132.7  1.20   0.0  1.00  1.00  1.00
 2020  51   248   247  28.2 -28.2 0.684   4.5  0.00  0.00  1.00  0.00 -0.06  0.00  0.00  1.00  0.00 89.96  1.00 132.7  1.48   0.0  1.00  1.00  1.00
 2020  52   249   248  29.5 -29.5 0.684   4.1  0.00  0.00  1.00  0.00 -0.06  0.00  0.00  1.00  0.00 94.23  1.00 132.7  1.41   0.0  1.00  1.00  1.00
 2020  53   250   249  29.7 -29.7 0.684   3.7  0.00  0.00  1.00  0.00 -0.06  0.00  0.00  1.00  0.00 88.27  1.00 132.7  1.50   0.0  1.00  1.00  1.00
 2020  54   251   250  29.6 -29.6 0.684   3.7  0.00  0.00  1.00  0.00 -0.06  0.00  0.00  1.00  0.00 90.88  1.00 132.7  1.46   0.0  1.00  1.00  1.00
 2020  55   252   251  29.0 -29.0 0.684   3.7  0.00  0.00  1.00  0.00 -0.06  0.00  0.00  1.00  0.00 97.86  1.00 132.7  1.36   0.0  1.00  1.00  1.00
 2020  56   253   252  27.7 -27.7 0.684   3.9  0.00  0.00  1.00  0.00 -0.06  0.00  0.00  1.00  0.00 99.90  1.00 132.6  0.96   0.0  1.00  1.00  1.00
 2020  57   254   253  27.0 -27.0 0.684   4.2  0.00  0.00  1.00  0.00 -0.06  0.00  0.00  1.00  0.00 99.90  1.00 132.6  0.77   0.0  1.00  1.00  1.00
 2020  58   255   254  28.8 -28.8 0.684   4.4  0.00  0.00  1.00  0.00 -0.06  0.00  0.00  1.00  0.00 99.90  1.00 132.6  0.71   0.0  1.00  1.00  1.00
 2020  59   256   255  28.8 -28.8 0.684   3.9  0.00  0.00  1.00  0.00 -0.06  0.00  0.00  1.00  0.00 99.90  1.00 132.6  0.60   0.0  1.00  1.00  1.00
 2020  60   257   256  30.1 -30.1 0.684   3.9  0.00  0.00  1.00  0.00 -0.06  0.00  0.00  1.00  0.00 99.90  1.00 132.6  0.76   0.0  1.00  1.00  1.00
 2020  61   258   257  29.7 -29.7 0.684   3.5  0.00  0.00  1.00  0.00 -0.06  0.00  0.00  1.00  0.00 99.90  1.00 132.6  0.70   0.0  1.00  1.00  1.00
 2020  62   259   258  29.0 -29.0 0.684   3.7  0.00  0.00  1.00  0.00 -0.06  0.00  0.00  1.00  0.00 99.90  1.00 132.5  0.47   0.0  1.00  1.00  1.00
 2020  63   260   259  29.5 -29.5 0.684   3.9  0.00  0.00  1.00  0.00 -0.06  0.00  0.00  1.00  0.00 99.90  1.00 132.5  0.45   0.0  1.00  1.00  1.00
 2020  64   261   260  30.2 -30.2 0.684   3.7  0.00  0.00  1.00  0.00 -0.06  0.00  0.00  1.00  0.00 99.90  1.00 132.5  0.61   0.0  1.00  1.00  1.00
 2020  65   262   261  30.2 -30.2 0.684   3.5  0.00  0.00  1.00  0.00 -0.06  0.00  0.00  1.00  0.00 99.90  1.00 132.5  0.61   0.0  1.00  1.00  1.00
 2020  66   263   262  28.9 -28.9 0.684   3.5  0.00  0.00  1.00  0.00 -0.06  0.00  0.00  1.00  0.00 99.90  1.00 132.5  0.49   0.0  1.00  1.00  1.00
 2020  67   264   263  30.6 -30.6 0.684   3.9  0.00  0.00  1.00  0.00 -0.06  0.00  0.00  1.00  0.00 99.90  1.00 132.5  0.51   0.0  1.00  1.00  1.00
 2020  68   265   264  30.2 -30.2 0.684   3.4  0.00  0.00  1.00  0.00 -0.06  0.00  0.00  1.00  0.00 99.90  1.00 132.5  0.47   0.0  1.00  1.00  1.00
 2020  69   266   265  31.8 -31.8 0.684   3.5  0.00  0.00  1.00  0.00 -0.06  0.00  0.00  1.00  0.00 99.90  1.00 132.4  0.45   0.0  1.00  1.00  1.00
 2020  70   267   266  29.9 -29.9 0.684   3.1  0.00  0.00  1.00  0.00 -0.06  0.00  0.00  1.00  0.00 99.90  1.00 132.4  0.33   0.0  1.00  1.00  1.00
 2020  71   268   267  29.6 -29.6 0.684   3.6  0.00  0.00  1.00  0.00 -0.06  0.00  0.00  1.00  0.00 99.90  1.00 132.4  0.27   0.0  1.00  1.00  1.00
 2020  72   269   268  30.0 -30.0 0.684   3.7  0.00  0.00  1.00  0.00 -0.06  0.00  0.00  1.00  0.00 99.90  1.00 132.4  0.24   0.0  1.00  1.00  1.00
 2020  73   270   269  28.6 -28.6 0.684   3.6  0.00  0.00  1.00  0.00 -0.06  0.00  0.00  1.00  0.00 99.90  1.00 132.4  0.18   0.0  1.00  1.00  1.00
 2020  74   271   270  28.4 -28.4 0.684   4.0  0.00  0.00  1.00  0.00 -0.06  0.00  0.00  1.00  0.00 99.90  1.00 132.4  0.20   0.0  1.00  1.00  1.00
 2020  75   272   271  28.5 -28.5 0.684   4.0  0.00  0.00  1.00  0.00 -0.06  0.00  0.00  1.00  0.00 99.90  1.00 132.3  0.22   0.0  1.00  1.00  1.00
 2020  76   273   272  28.5 -28.5 0.684   4.0  0.00  0.00  1.00  0.00 -0.06  0.00  0.00  1.00  0.00 99.90  1.00 132.3  0.21   0.0  1.00  1.00  1.00
 2020  77   274   273  30.0 -30.0 0.684   4.0  0.00  0.00  1.00  0.00 -0.06  0.00  0.00  1.00  0.00 99.90  1.00 132.3  0.19   0.0  1.00  1.00  1.00
 2020  78   275   274  30.5 -30.5 0.684   3.6  0.00  0.00  1.00  0.00 -0.06  0.00  0.00  1.00  0.00 99.90  1.00 132.3  0.15   0.0  1.00  1.00  1.00
 2020  79   276   275  30.8 -30.8 0.684   3.4  0.00  0.00  1.00  0.00 -0.06  0.00  0.00  1.00  0.00 99.90  1.00 132.3  0.13   0.0  1.00  1.00  1.00
 2020  80   277   276  29.7 -29.7 0.684   3.3  0.00  0.00  1.00  0.00 -0.06  0.00  0.00  1.00  0.00 99.90  1.00 132.3  0.09   0.0  1.00  1.00  1.00
 2020  81   278   277  29.5 -29.5 0.684   3.7  0.00  0.00  1.00  0.00 -0.06  0.00  0.00  1.00  0.00 99.90  1.00 132.3  0.08   0.0  1.00  1.00  1.00
 2020  82   279   278  28.9 -28.9 0.684   3.7  0.00  0.00  1.00  0.00 -0.06  0.00  0.00  1.00  0.00 99.90  1.00 132.2  0.07   0.0  1.00  1.00  1.00
 2020  83   280   279  28.4 -28.4 0.684   3.9  0.00  0.00  1.00  0.00 -0.06  0.00  0.00  1.00  0.00 99.90  1.00 132.2  0.07   0.0  1.00  1.00  1.00
 2020  84   281   280  26.8 -26.8 0.684   4.0  0.00  0.00  1.00  0.00 -0.06  0.00  0.00  1.00  0.00 99.90  1.00 139.4  0.06   0.0  1.00  1.00  1.00
 2020  85   282   281  26.8 -26.8 0.685   4.5  0.00  0.00  0.77  0.00 -0.06  0.00  0.00  0.85  0.00 99.90  1.00 140.3  0.05   0.0  1.00  1.00  1.00
 2020  86   283   282  27.8 -27.8 0.686   4.5  0.00  0.00  0.66  0.00 -0.06  0.00  0.00  0.77  0.00 99.90  1.00 137.3  0.04   0.0  1.00  1.00  1.00
 2020  87   284   283  29.5 -29.5 0.687   4.2  0.00  0.00  0.61  0.00 -0.06  0.00  0.00  0.74  0.00 99.90  1.00 132.5  0.05   0.0  1.00  1.00  1.00
 2020  88   285   284  29.8 -29.8 0.688   3.7  0.00  0.00  0.67  0.00 -0.06  0.00  0.00  0.78  0.00 99.90  1.00 131.8  0.05   0.0  1.00  1.00  1.00
 2020  89   286   285  28.6 -28.6 0.688   3.6  0.00  0.00  0.70  0.00 -0.06  0.00  0.00  0.80  0.00 99.90  1.00 132.7  0.04   0.0  1.00  1.00  1.00
 2020  90   287   286  28.5 -28.5 0.689   4.0  0.00  0.00  0.65  0.00 -0.06  0.00  0.00  0.76  0.00 99.90  1.00 132.5  0.03   0.0  1.00  1.00  1.00
 2020  91   288   287  27.5 -27.5 0.690   4.0  0.00  0.00  0.65  0.00 -0.06  0.00  0.00  0.77  0.00 99.90  1.00 136.3  0.02   0.0  1.00  1.00  1.00
 2020  92   289   288  27.2 -27.2 0.691   4.3  0.00  0.00  0.50  0.00 -0.06  0.00  0.00  0.67  0.00 99.90  1.00 133.0  0.02   0.0  1.00  1.00  1.00
 2020  93   290   289  28.8 -28.8 0.693   4.4  0.00  0.00  0.47  0.00 -0.06  0.00  0.00  0.65  0.00 99.90  1.00 129.4  0.02   0.0  1.00  1.00  1.00
 2020  94   291   290  27.7 -27.7 0.694   3.9  0.00  0.00  0.53  0.00 -0.06  0.00  0.00  0.69  0.00 99.90  1.00 129.8  0.03   0.0  1.00  1.00  1.00
 2020  95   292   291  28.3 -28.3 0.695   4.2  0.00  0.00  0.50  0.00 -0.06  0.00  0.00  0.67  0.00 99.90  1.00 129.4  0.03   0.0  1.00  1.00  1.00
 2020  96   293   292  28.0 -28.0 0.696   4.1  0.00  0.00  0.52  0.00 -0.06  0.00  0.00  0.68  0.00 99.90  1.00 128.7  0.04   0.0  1.00  1.00  1.00
 2020  97   294   293  28.2 -28.2 0.697   4.2  0.00  0.00  0.55  0.00 -0.06  0.00  0.00  0.70  0.00 99.90  1.00 134.9  0.05   0.0  1.00  1.00  1.00
 2020  98   295   294  29.1 -29.1 0.699   4.1  0.00  0.00  0.29  0.00 -0.06  0.00  0.00  0.53  0.00 99.90  1.00 136.9  0.06   0.0  1.00  1.00  1.00
 2020  99   296   295  27.3 -27.3 0.701   3.8  0.00  0.00  0.25  0.00 -0.06  0.00  0.00  0.50  0.00 99.90  1.00 140.3  0.06   0.0  1.00  1.00  1.00
 2020 100   297   296  26.0 -26.0 0.703   4.3  0.00  0.00  0.09  0.00 -0.06  0.00  0.00  0.39  0.00 99.90  1.00 145.9  0.05   0.0  1.00  1.00  1.00
 2020 101   298   297  25.5 -25.5 0.706   4.7  0.00  0.00  0.00  0.00 -0.06  0.00  0.00  0.26  0.00 99.90  1.00 170.5  0.05   0.0  1.00  1.00  1.00
 2020 102   299   298  25.9 -25.9 0.711   4.8  0.00  0.00  0.00  0.00 -0.06  0.00  0.00  0.00  0.00 99.90  1.00 172.0  0.08   0.0  1.00  1.00  1.00
 2020 103   300   299  25.8 -25.8 0.715   4.7  0.00  0.00  0.00  0.00 -0.06  0.00  0.00  0.00  0.00 99.90  1.00 166.2  0.10   0.0  1.00  1.00  1.00
 2020 104   301   300  27.7 -27.7 0.720   4.8  0.00  0.00  0.00  0.00 -0.06  0.00  0.00  0.00  0.00 99.90  1.00 161.3  0.12   0.0  1.00  1.00  1.00
 2020 105   302   301  28.0 -28.0 0.723   4.2  0.00  0.00  0.00  0.00 -0.06  0.00  0.00  0.00  0.00 99.90  1.00 159.5  0.15   0.0  1.00  1.00  1.00
 2020 106   303   302  28.4 -28.4 0.727   4.2  0.00  0.00  0.00  0.00 -0.06  0.00  0.00  0.00  0.00 99.90  1.00 160.4  0.18   0.0  1.00  1.00  1.00
 2020 107   304   303  29.7 -29.7 0.731   4.0  0.00  0.00  0.00  0.00 -0.06  0.00  0.00  0.00  0.00 99.90  1.00 154.5  0.23   0.0  1.00  1.00  1.00
 2020 108   305   304  28.8 -28.8 0.734   3.7  0.00  0.00  0.00  0.00 -0.06  0.00  0.00  0.00  0.00 99.90  1.00 149.5  0.24   0.0  1.00  1.00  1.00
 2020 109   306   305  29.1 -29.1 0.738   3.9  0.00  0.00  0.00  0.00 -0.06  0.00  0.00  0.00  0.00 99.90  1.00 148.3  0.30   0.0  1.00  1.00  1.00
 2020 110   307   306  27.6 -27.6 0.741   3.8  0.00  0.00  0.00  0.00 -0.06  0.00  0.00  0.00  0.00 99.90  1.00 147.1  0.33   0.0  1.00  1.00  1.00
 2020 111   308   307  28.1 -28.1 0.745   4.3  0.00  0.00  0.00  0.00 -0.06  0.00  0.00  0.00  0.00 99.90  1.00 145.9  0.37   0.0  1.00  1.00  1.00
 2020 112   309   308  27.5 -27.5 0.749   4.1  0.00  0.00  0.00  0.00 -0.06  0.00  0.00  0.00  0.00 99.90  1.00 144.9  0.40   0.0  1.00  1.00  1.00
 2020 113   310   309  27.2 -27.2 0.753   4.3  0.00  0.00  0.00  0.00 -0.06  0.00  0.00  0.00  0.00 99.90  1.00 144.1  0.49   0.0  1.00  1.00  1.00
 2020 114   311   310  28.0 -28.0 0.757   4.4  0.00  0.00  0.00  0.00 -0.06  0.00  0.00  0.02  0.00 99.90  1.00 143.5  0.43   0.0  1.00  1.00  1.00
 2020 115   312   311  27.2 -27.2 0.760   4.1  0.00  0.00  0.00  0.00 -0.06  0.00  0.00  0.03  0.00 99.90  1.00 143.2  0.49   0.0  1.00  1.00  1.00
 2020 116   313   312  27.6 -27.6 0.764   4.4  0.00  0.00  0.00  0.00 -0.06  0.00  0.00  0.03  0.00 99.90  1.00 149.8  0.51   0.0  1.00  1.00  1.00
 2020 117   314   313  26.7 -26.7 0.768   4.2  0.00  0.00  0.00  0.00 -0.06  0.00  0.00  0.00  0.00 99.90  1.00 151.5  0.57   0.0  1.00  1.00  1.00
 2020 118   315   314  26.5 -26.5 0.772   4.5  0.00  0.00  0.00  0.00 -0.06  0.00  0.00  0.00  0.00 99.90  1.00 151.9  0.60   0.0  1.00  1.00  1.00
 2020 119   316   315  27.7 -27.7 0.776   4.6  0.00  0.00  0.00  0.00 -0.06  0.00  0.00  0.00  0.00 99.90  1.00 149.6  0.68   0.0  1.00  1.00  1.00
 2020 120   317   316  26.7 -26.7 0.780   4.2  0.00  0.00  0.00  0.00 -0.06  0.00  0.00  0.00  0.00 99.90  1.00 151.7  0.61   0.0  1.00  1.00  1.00
 2020 121   318   317  26.4 -26.4 0.784   4.5  0.00  0.00  0.00  0.00 -0.06  0.00  0.00  0.00  0.00 99.90  1.00 153.0  0.58   0.0  1.00  1.00  1.00
 2020 122   319   318  26.5 -26.5 0.788   4.6  0.00  0.00  0.00  0.00 -0.06  0.00  0.00  0.00  0.00 99.90  1.00 151.7  0.63   0.0  1.00  1.00  1.00
 2020 123   320   319  27.5 -27.5 0.793   4.6  0.00  0.00  0.00  0.00 -0.06  0.00  0.00  0.00  0.00 99.90  1.00 149.2  0.80   0.0  1.00  1.00  1.00
 2020 124   321   320  26.5 -26.5 0.797   4.3  0.00  0.00  0.00  0.00 -0.06  0.00  0.00  0.00  0.00 99.90  1.00 150.5  0.71   0.0  1.00  1.00  1.00
 2020 125   322   321  26.5 -26.5 0.801   4.6  0.00  0.00  0.00  0.00 -0.06  0.00  0.00  0.00  0.00 99.90  1.00 150.7  0.60   0.0  1.00  1.00  1.00
 2020 126   323   322  28.0 -28.0 0.805   4.6  0.00  0.00  0.00  0.00 -0.06  0.00  0.00  0.00  0.00 99.90  1.00 146.8  0.87   0.0  1.00  1.00  1.00
 2020 127   324   323  28.4 -28.4 0.809   4.1  0.00  0.00  0.00  0.00 -0.06  0.00  0.00  0.00  0.00 99.90  1.00 141.8  0.83   0.0  1.00  1.00  1.00
 2020 128   325   324  28.0 -28.0 0.812   4.0  0.00  0.00  0.00  0.00 -0.06  0.00  0.00  0.00  0.00 99.90  1.00 138.6  0.73   0.0  1.00  1.00  1.00
 2020 129   326   325  28.2 -28.2 0.816   4.1  0.00  0.00  0.00  0.00 -0.06  0.00  0.00  0.00  0.00 99.90  1.00 135.4  0.73   0.0  1.00  1.00  1.00
 2020 130   327   326  27.4 -27.4 0.820   4.1  0.00  0.00  0.00  0.00 -0.06  0.00  0.00  0.00  0.00 99.90  1.00 141.5  0.64   0.0  1.00  1.00  1.00
 2020 131   328   327  26.8 -26.8 0.824   4.3  0.00  0.00  0.00  0.00 -0.06  0.00  0.00  0.00  0.00 99.90  1.00 139.6  0.72   0.0  1.00  1.00  1.00
 2020 132   329   328  26.4 -26.4 0.828   4.5  0.00  0.00  0.00  0.00 -0.06  0.00  0.00  0.00  0.00 99.90  1.00 137.3  0.85   0.0  1.00  1.00  1.00
 2020 133   330   329  27.0 -27.0 0.832   4.6  0.00  0.00  0.00  0.00 -0.06  0.00  0.00  0.00  0.00 99.90  1.00 133.5  0.85   0.0  1.00  1.00  1.00
 2020 134   331   330  27.7 -27.7 0.836   4.4  0.00  0.00  0.00  0.00 -0.06  0.00  0.00  0.00  0.00 99.90  1.00 129.6  0.84   0.0  1.00  1.00  1.00
 2020 135   332   331  27.8 -27.8 0.840   4.2  0.00  0.00  0.00  0.00 -0.06  0.00  0.00  0.00  0.00 99.90  1.00 128.1  0.99   0.0  1.00  1.00  1.00
 2020 136   333   332  27.9 -27.9 0.844   4.2  0.00  0.00  0.00  0.00 -0.06  0.00  0.00  0.00  0.00 99.90  1.00 129.1  0.71   0.0  1.00  1.00  1.00
 2020 137   334   333  27.7 -27.7 0.848   4.2  0.00  0.00  0.00  0.00 -0.06  0.00  0.00  0.00  0.00 99.90  1.00 129.4  0.97   0.0  1.00  1.00  1.00
 2020 138   335   334  26.8 -26.8 0.851   4.2  0.00  0.00  0.00  0.00 -0.06  0.00  0.00  0.00  0.00 99.90  1.00 132.1  1.05   0.0  1.00  1.00  1.00
 2020 139   336   335  26.3 -26.3 0.855   4.5  0.00  0.00  0.00  0.00 -0.06  0.00  0.00  0.00  0.00 99.90  1.00 142.4  0.87   0.0  1.00  1.00  1.00
 2020 140   337   336  26.0 -26.0 0.860   4.6  0.00  0.00  0.00  0.00 -0.06  0.00  0.00  0.00  0.00 99.90  1.00 159.1  0.69   0.0  1.00  1.00  1.00
 2020 141   338   337  25.9 -25.9 0.864   4.7  0.00  0.00  0.00  0.00 -0.06  0.00  0.00  0.00  0.00 99.90  1.00 172.6  0.83   0.0  1.00  1.00  1.00
 2020 142   339   338  25.7 -25.7 0.868   4.8  0.00  0.00  0.00  0.00 -0.06  0.00  0.00  0.00  0.00 99.90  1.00 176.7  0.95   0.0  1.00  1.00  1.00
 2020 143   340   339  26.1 -26.1 0.873   4.8  0.00  0.00  0.00  0.00 -0.06  0.00  0.00  0.00  0.00 99.90  1.00 179.6  0.98   0.0  1.00  1.00  1.00
 2020 144   341   340  26.3 -26.3 0.877   4.7  0.00  0.00  0.00  0.00 -0.06  0.00  0.00  0.00  0.00 99.90  1.00 175.3  0.97   0.0  1.00  1.00  1.00
 2020 145   342   341  26.5 -26.5 0.881   4.6  0.00  0.00  0.00  0.00 -0.06  0.00  0.00  0.00  0.00 99.90  1.00 174.6  0.51   0.0  1.00  1.00  1.00
 2020 146   343   342  25.7 -25.7 0.885   4.6  0.00  0.00  0.00  0.00 -0.06  0.00  0.00  0.00  0.00 99.90  1.00 173.8  0.65   0.0  1.00  1.00  1.00
 2020 147   344   343  25.6 -25.6 0.890   4.8  0.00  0.00  0.00  0.00 -0.06  0.00  0.00  0.00  0.00 99.90  1.00 171.2  1.03   0.0  1.00  1.00  1.00
 2020 148   345   344  27.2 -27.2 0.894   4.8  0.00  0.00  0.00  0.00 -0.06  0.00  0.00  0.00  0.00 99.90  1.00 169.8  0.91   0.0  1.00  1.00  1.00
 2020 149   346   345  26.5 -26.5 0.898   4.4  0.00  0.00  0.00  0.00 -0.06  0.00  0.00  0.00  0.00 99.90  1.00 166.8  0.85   0.0  1.00  1.00  1.00
 2020 150   347   346  25.8 -25.8 0.902   4.6  0.00  0.00  0.00  0.00 -0.06  0.00  0.00  0.00  0.00 99.90  1.00 163.9  1.12   0.0  1.00  1.00  1.00
 2020 151   348   347  25.0 -25.0 0.907   4.8  0.00  0.00  0.00  0.00 -0.06  0.00  0.00  0.00  0.00 99.90  1.00 182.2  0.97   0.0  1.00  1.00  1.00
 2020 152   349   348  25.8 -25.8 0.911   5.0  0.00  0.00  0.00  0.00 -0.06  0.00  0.00  0.00  0.00 99.90  1.00 179.6  1.02   0.0  1.00  1.00  1.00
 2020 153   350   349  25.7 -25.7 0.915   4.8  0.00  0.00  0.00  0.00 -0.06  0.00  0.00  0.00  0.00 99.90  1.00 178.9  0.55   0.0  1.00  1.00  1.00
 2020 154   351   350  26.2 -26.2 0.920   4.8  0.00  0.00  0.00  0.00 -0.06  0.00  0.00  0.00  0.00 99.90  1.00 176.6  1.08   0.0  1.00  1.00  1.00
 2020 155   352   351  25.9 -25.9 0.924   4.7  0.00  0.00  0.00  0.00 -0.06  0.00  0.00  0.00  0.00 99.90  1.00 174.8  1.14   0.0  1.00  1.00  1.00
 2020 156   353   352  25.6 -25.6 0.928   4.7  0.00  0.00  0.00  0.00 -0.06  0.00  0.00  0.00  0.00 99.90  1.00 172.8  0.96   0.0  1.00  1.00  1.00
 2020 157   354   353  25.6 -25.6 0.933   4.8  0.00  0.00  0.00  0.00 -0.06  0.00  0.00  0.00  0.00 99.90  1.00 180.4  1.21   0.0  1.00  1.00  1.00
 2020 158   355   354  25.5 -25.5 0.937   4.8  0.00  0.00  0.00  0.00 -0.06  0.00  0.00  0.00  0.00 99.90  1.00 191.2  0.88   0.0  1.00  1.00  1.00
 2020 159   356   355  26.1 -26.1 0.942   4.9  0.00  0.00  0.00  0.00 -0.06  0.00  0.00  0.00  0.00 99.90  1.00 200.2  1.31   0.0  1.00  1.00  1.00
 2020 160   357   356  26.5 -26.5 0.946   4.7  0.00  0.00  0.00  0.00 -0.06  0.00  0.00  0.00  0.00 99.90  1.00 207.7  1.21   0.0  1.00  1.00  1.00
 2020 161   358   357  24.6 -24.6 0.950   4.6  0.00  0.03  0.00  0.00 -0.06  0.00  0.00  0.00  0.00 99.90  1.00 215.7  1.05   0.0  1.00  1.00  1.00
 2020 162   359   358  25.2 -25.2 0.955   5.0  0.00  0.00  0.00  0.00 -0.06  0.00  0.00  0.00  0.00 99.90  1.00 215.0  1.23   0.0  1.00  1.00  1.00
 2020 163   360   359  25.0 -25.0 0.959   4.9  0.00  0.00  0.00  0.00 -0.06  0.00  0.00  0.00  0.00 99.90  1.00 224.1  1.08   0.0  1.00  1.00  1.00
 2020 164   361   360  25.5 -25.5 0.964   5.0  0.00  0.00  0.00  0.00 -0.06  0.00  0.00  0.00  0.00 99.90  1.00 240.4  0.99   0.0  1.00  1.00  1.00
 2020 165   362   361  24.8 -24.8 0.968   4.9  0.00  0.02  0.00  0.00 -0.06  0.00  0.00  0.00  0.00 99.90  1.00 254.0  1.12   0.0  1.00  1.00  1.00
 2020 166   363   362  25.5 -25.5 0.973   5.0  0.00  0.00  0.00  0.00 -0.06  0.00  0.00  0.00  0.00 99.90  1.00 255.2  1.23   0.0  1.00  1.00  1.00
 2020 167   364   363  26.2 -26.2 0.977   4.9  0.00  0.00  0.00  0.00 -0.06  0.00  0.00  0.00  0.00 99.90  1.00 249.0  1.11   0.0  1.00  1.00  1.00
 2020 168   365   364  26.2 -26.2 0.981   4.7  0.00  0.00  0.00  0.00 -0.06  0.00  0.00  0.00  0.00 99.90  1.00 241.6  1.21   0.0  1.00  1.00  1.00
 2020 169   366   365  25.7 -25.7 0.986   4.7  0.00  0.00  0.00  0.00 -0.06  0.00  0.00  0.00  0.00 99.90  1.00 236.4  0.79   0.0  1.00  1.00  1.00
 2020 170   367   366  25.0 -25.0 0.990   4.8  0.00  0.00  0.00  0.00 -0.06  0.00  0.00  0.00  0.00 99.90  1.00 231.5  0.84   0.0  1.00  1.00  1.00
 2020 171   368   367  25.1 -25.1     1   5.0  0.00  0.00  0.00  0.00 -0.06  0.00  0.00  0.00  0.00 99.90  1.00 226.1  1.02   0.0  1.00  1.00  1.00
 2020 172   369   368  25.7 -25.7     1   5.0  0.00  0.00  0.00  0.00 -0.06  0.00  0.00  0.00  0.00 99.90  1.00 218.3  1.25   0.0  1.00  1.00  1.00
 2020 173   370   369  25.5 -25.5 1.007  10.8  0.00  0.00  0.00  0.00 -0.06  0.00  0.00  0.00  0.00 99.90  1.00 212.3  1.20   0.0  1.00  1.00  1.00
 2020 174   371   370  25.0 -25.0 1.011   4.8  0.00  0.00  0.00  0.00 -0.06  0.00  0.00  0.00  0.00 99.90  1.00 206.7  0.99   0.0  1.00  1.00  1.00
 2020 175   372   371  24.9 -24.9 1.014   5.0  0.00  0.01  0.00  0.00 -0.06  0.00  0.00  0.00  0.00 99.90  1.00 202.0  1.25   0.0  1.00  1.00  1.00
 2020 176   373   372  25.7 -25.7 1.018   5.0  0.00  0.00  0.00  0.00 -0.06  0.00  0.00  0.00  0.00 99.90  1.00 196.7  1.36   0.0  1.00  1.00  1.00
 2020 177   374   373  25.3 -25.3 1.021   4.8  0.00  0.00  0.00  0.00 -0.06  0.00  0.00  0.00  0.00 99.90  1.00 196.8  1.38   0.0  1.00  1.00  1.00
 2020 178   375   374  24.5 -24.5 1.025   4.9  0.00  0.03  0.00  0.00 -0.06  0.00  0.00  0.00  0.00 99.90  1.00 202.0  0.59   0.0  1.00  1.00  1.00
 2020 179   376   375  25.1 -25.1 1.029   5.0  0.00  0.00  0.00  0.00 -0.06  0.00  0.00  0.00  0.00 99.90  1.00 204.1  1.11   0.0  1.00  1.00  1.00
 2020 180   377   376  25.1 -25.1 1.032   5.0  0.00  0.00  0.00  0.00 -0.06  0.00  0.00  0.00  0.00 99.90  1.00 207.2  0.87   0.0  1.00  1.00  1.00
 2020 181   378   377  25.3 -25.3 1.036   5.0  0.00  0.00  0.00  0.00 -0.06  0.00  0.00  0.00  0.00 99.90  1.00 212.3  0.90   0.0  1.00  1.00  1.00
 2020 182   379   378  24.5 -24.5 1.039   4.9  0.00  0.03  0.00  0.00 -0.06  0.00  0.00  0.00  0.00 99.90  1.00 211.9  1.09   0.0  1.00  1.00  1.00
 2020 183   380   379  25.2 -25.2 1.043   5.0  0.00  0.00  0.00  0.00 -0.06  0.00  0.00  0.00  0.00 99.90  1.00 207.4  1.40   0.0  1.00  1.00  1.00
 2020 184   381   380  24.9 -24.9 1.047   4.9  0.00  0.01  0.00  0.00 -0.06  0.00  0.00  0.00  0.00 99.90  1.00 201.8  1.58   0.0  1.00  1.00  1.00
 2020 185   382   381  25.5 -25.5 1.050   5.0  0.00  0.00  0.00  0.00 -0.06  0.00  0.00  0.00  0.00 99.90  1.00 208.8  1.01   0.0  1.00  1.00  1.00
 2020 186   383   382  25.1 -25.1 1.054   4.9  0.00  0.00  0.00  0.00 -0.06  0.00  0.00  0.00  0.00 99.90  1.00 207.9  0.86   0.0  1.00  1.00  1.00
 2020 187   384   383  24.4 -24.4 1.058   5.0  0.00  0.04  0.00  0.00 -0.06  0.00  0.00  0.00  0.00 99.90  1.00 217.5  1.04   0.0  1.00  1.00  1.00
 2020 188   385   384  25.2 -25.2 1.061   5.0  0.00  0.00  0.00  0.00 -0.06  0.00  0.00  0.00  0.00 99.90  1.00 213.7  1.29   0.0  1.00  1.00  1.00
 2020 189   386   385  24.5 -24.5 1.065   4.9  0.00  0.03  0.00  0.00 -0.06  0.00  0.00  0.00  0.00 99.90  1.00 212.9  1.38   0.0  1.00  1.00  1.00
 2020 190   387   386  24.6 -24.6 1.068   5.0  0.00  0.02  0.00  0.00 -0.06  0.00  0.00  0.00  0.00 99.90  1.00 211.4  1.18   0.0  1.00  1.00  1.00
 2020 191   388   387  25.5 -25.5 1.072   5.0  0.00  0.00  0.00  0.00 -0.06  0.00  0.00  0.00  0.00 99.90  1.00 207.7  1.24   0.0  1.00  1.00  1.00
 2020 192   389   388  24.6 -24.6 1.076   4.9  0.00  0.03  0.00  0.00 -0.06  0.00  0.00  0.00  0.00 99.90  1.00 216.8  0.50   0.0  1.00  1.00  1.00
 2020 193   390   389  24.6 -24.6 1.079   5.0  0.00  0.03  0.00  0.00 -0.06  0.00  0.00  0.00  0.00 99.90  1.00 219.0  1.34   0.0  1.00  1.00  1.00
 2020 194   391   390  24.0 -24.0 1.083   5.0  0.00  0.06  0.00  0.00 -0.06  0.00  0.00  0.00  0.00 99.90  1.00 216.8  0.86   0.0  1.00  1.00  1.00
 2020 195   392   391  24.6 -24.6 1.087   5.0  0.00  0.03  0.00  0.00 -0.06  0.00  0.00  0.00  0.00 99.90  1.00 214.5  1.01   0.0  1.00  1.00  1.00
 2020 196   393   392  23.4 -23.4 1.090   5.0  0.00  0.11  0.00  0.00 -0.06  0.00  0.05  0.00  0.00 99.90  1.00 215.1  1.01   0.0  1.00  1.00  1.00
 2020 197   394   393  23.0 -23.0 1.094   5.0  0.00  0.14  0.00  0.00 -0.06  0.00  0.09  0.00  0.00 99.90  1.00 242.5  0.92   0.0  1.00  1.00  1.00
 2020 198   395   394  23.5 -23.5 1.098   5.0  0.00  0.10  0.00  0.00 -0.06  0.00  0.04  0.00  0.00 99.90  1.00 264.6  1.14   0.0  1.00  1.00  1.00
 2020 199   396   395  24.0 -24.0 1.101   5.0  0.00  0.07  0.00  0.00 -0.06  0.00  0.00  0.00  0.00 99.90  1.00 283.2  0.79   0.0  1.00  1.00  1.00
 2020 200   397   396  23.3 -23.3 1.105   5.0  0.00  0.11  0.00  0.00 -0.06  0.00  0.05  0.00  0.00 99.90  1.00 283.1  1.26   0.0  1.00  1.00  1.00
 2020 201   398   397  23.9 -23.9 1.109   5.0  0.00  0.07  0.00  0.00 -0.06  0.00  0.01  0.00  0.00 99.90  1.00 282.6  0.94   0.0  1.00  1.00  1.00
 2020 202   399   398  23.4 -23.4 1.112   5.0  0.00  0.11  0.00  0.00 -0.06  0.00  0.05  0.00  0.00 99.90  1.00 282.1  1.14   0.0  1.00  1.00  1.00
 2020 203   400   399  23.0 -23.0 1.116   5.0  0.00  0.14  0.00  0.00 -0.06  0.00  0.09  0.00  0.00 99.90  1.00 281.7  1.44   0.0  1.00  1.00  1.00
 2020 204   401   400  24.1 -24.1 1.119   5.0  0.00  0.06  0.00  0.00 -0.06  0.00  0.00  0.00  0.00 99.90  1.00 275.5  1.47   0.0  1.00  1.00  1.00
 2020 205   402   401  24.1 -24.1 1.123   5.0  0.00  0.06  0.00  0.00 -0.06  0.00  0.00  0.00  0.00 99.90  1.00 298.1  1.16   0.0  1.00  1.00  1.00
 2020 206   403   402  23.6 -23.6 1.127   5.0  0.00  0.09  0.00  0.00 -0.06  0.00  0.03  0.00  0.00 99.90  1.00 309.3  1.09   0.0  1.00  1.00  1.00
 2020 207   404   403  24.2 -24.2 1.130   5.0  0.00  0.05  0.00  0.00 -0.06  0.00  0.00  0.00  0.00 99.90  1.00 309.9  0.79   0.0  1.00  1.00  1.00
 2020 208   405   404  24.8 -24.8 1.134   5.0  0.00  0.01  0.00  0.00 -0.06  0.00  0.00  0.00  0.00 99.90  1.00 298.6  1.50   0.0  1.00  1.00  1.00
 2020 209   406   405  24.2 -24.2 1.138   5.0  0.00  0.06  0.00  0.00 -0.06  0.00  0.00  0.00  0.00 99.90  1.00 296.1  0.91   0.0  1.00  1.00  1.00

*DSSAT Cropping System Model Ver. 4.8.0.019 -develop  APR 08, 2023 12:34:37

*RUN   2        : IITA-TMS-IBA000070        CSYCA048 UYAG1701    1
 MODEL          : CSYCA048 - Cassava
 EXPERIMENT     : UYAG1701 CS UYT_GXE
 DATA PATH      :
 TREATMENT  1   : IITA-TMS-IBA000070        CSYCA048
  
!........DATES.......  ...TEMP... STAGE  ...PHENOLOGY....  ....PHOTOSYNTHESIS....  .....GROWTH..... H2O STRESS DETERMINANTS .N STRESS DETERMINANTS.
@YEAR DOY   DAS   DAP TMEAN TCDIF  GSTD    DU DYLFD  TFPD  WFPD  NFPD CO2FD RSFPD  TFGD  WFGD  NFGD WAVRD WUPRD  SWXD  EOPD  SNXD LN%RD SN%RD RN%RD            
 2017 242     1     0  24.5 -99.0     0   0.0  0.00  0.00  0.00  0.00  0.00  0.00  0.00  0.00  0.00 99.90  1.00  29.3  0.00   0.0  1.00  1.00  0.00
 2017 243     2     1  24.2 -24.2     0   0.0  0.00  0.00  0.00  0.00  0.00  0.00  0.00  0.00  0.00 99.90  1.00  29.8  0.00   0.0  1.00  1.00  0.00
 2017 244     3     2  24.3 -24.3     0   0.0  0.00  0.00  0.00  0.00  0.00  0.00  0.00  0.00  0.00 99.90  1.00  27.7  0.00   0.0  1.00  1.00  0.00
 2017 245     4     3  24.7 -24.7     0   0.0  0.00  0.00  0.00  0.00  0.00  0.00  0.00  0.00  0.00 99.90  1.00  28.9  0.00   0.0  1.00  1.00  0.00
 2017 246     5     4  23.9 -23.9     0   0.0  0.00  0.00  0.00  0.00  0.00  0.00  0.00  0.00  0.00 99.90  1.00  30.1  0.00   0.0  1.00  1.00  0.00
 2017 247     6     5  25.2 -25.2     0   0.0  0.00  0.00  0.00  0.00  0.00  0.00  0.00  0.00  0.00 99.90  1.00  31.3  0.00   0.0  1.00  1.00  0.00
 2017 248     7     6  25.0 -25.0     0   0.0  0.00  0.00  0.00  0.00  0.00  0.00  0.00  0.00  0.00 99.90  1.00  30.4  0.00   0.0  1.00  1.00  0.00
 2017 249     8     7  25.5 -25.5     0   0.0  0.00  0.00  0.00  0.00  0.00  0.00  0.00  0.00  0.00 99.90  1.00  32.7  0.00   0.0  1.00  1.00  0.00
 2017 250     9     8  24.5 -24.5     0   0.0  0.00  0.00  0.00  0.00  0.00  0.00  0.00  0.00  0.00 99.90  1.00  34.3  0.00   0.0  1.00  1.00  0.00
 2017 251    10     9  24.3 -24.3     0   0.1  0.00  0.05  0.00  0.00 -0.06  0.00  0.00  0.00  0.00 99.90  1.00  33.2  0.00   0.0  1.00  1.00  1.00
 2017 252    11    10  25.5 -25.5 .0046   5.0  0.00  0.00  0.00  0.00 -0.06  0.00  0.00  0.00  0.00 99.90  1.00  32.3  0.00   0.0  1.00  1.00  1.00
 2017 253    12    11  26.1 -26.1 .0090   4.9  0.00  0.00  0.00  0.00 -0.06  0.00  0.00  0.00  0.00 99.90  1.00  34.8  0.00   0.0  1.00  1.00  1.00
 2017 254    13    12  24.8 -24.8 .0133   4.7  0.00  0.01  0.00  0.00 -0.06  0.00  0.00  0.00  0.00 99.90  1.00  35.9  0.00   0.0  1.00  1.00  1.00
 2017 255    14    13  24.9 -24.9 .0178   5.0  0.00  0.01  0.00  0.00 -0.06  0.00  0.00  0.00  0.00 99.90  1.00  36.9  0.00   0.0  1.00  1.00  1.00
 2017 256    15    14  24.4 -24.4 .0224   5.0  0.00  0.04  0.00  0.00 -0.06  0.00  0.00  0.00  0.00 99.90  1.00  34.7  0.00   0.0  1.00  1.00  1.00
 2017 257    16    15  25.1 -25.1 .0269   5.0  0.00  0.00  0.00  0.00 -0.06  0.00  0.00  0.00  0.00 99.90  1.00  32.3  0.01   0.0  1.00  1.00  1.00
 2017 258    17    16  24.8 -24.8 .0314   5.0  0.00  0.01  0.00  0.00 -0.06  0.00  0.00  0.00  0.00 99.90  1.00  32.7  0.02   0.0  1.00  1.00  1.00
 2017 259    18    17  24.1 -24.1 .0360   5.0  0.00  0.06  0.00  0.00 -0.06  0.00  0.00  0.00  0.00 99.90  1.00  34.9  0.03   0.0  1.00  1.00  1.00
 2017 260    19    18  24.7 -24.7 .0405   5.0  0.00  0.02  0.00  0.00 -0.06  0.00  0.00  0.00  0.00 99.90  1.00  33.9  0.07   0.0  1.00  1.00  1.00
 2017 261    20    19  25.2 -25.2 .0451   5.0  0.00  0.00  0.00  0.00 -0.06  0.00  0.00  0.00  0.00 99.90  1.00  35.9  0.11   0.0  1.00  1.00  1.00
 2017 262    21    20  26.0 -26.0 .0496   4.9  0.00  0.00  0.00  0.00 -0.06  0.00  0.00  0.00  0.00 99.90  1.00  37.1  0.12   0.0  1.00  1.00  1.00
 2017 263    22    21  25.5 -25.5 .0539   4.7  0.00  0.00  0.00  0.00 -0.06  0.00  0.00  0.00  0.00 99.90  1.00  36.9  0.22   0.0  1.00  1.00  1.00
 2017 264    23    22  25.0 -25.0 .0583   4.9  0.00  0.00  0.00  0.00 -0.06  0.00  0.00  0.00  0.00 99.90  1.00  42.0  0.17   0.0  1.00  1.00  1.00
 2017 265    24    23  24.6 -24.6 .0629   5.0  0.00  0.03  0.00  0.00 -0.06  0.00  0.00  0.00  0.00 99.90  1.00  42.2  0.29   0.0  1.00  1.00  1.00
 2017 266    25    24  24.8 -24.8 .0674   5.0  0.00  0.01  0.00  0.00 -0.06  0.00  0.00  0.00  0.00 99.90  1.00  47.3  0.43   0.0  1.00  1.00  1.00
 2017 267    26    25  24.8 -24.8 .0720   5.0  0.00  0.01  0.00  0.00 -0.06  0.00  0.00  0.00  0.00 99.90  1.00  55.6  0.45   0.0  1.00  1.00  1.00
 2017 268    27    26  25.5 -25.5 .0766   5.0  0.00  0.00  0.00  0.00 -0.06  0.00  0.00  0.00  0.00 99.90  1.00  59.2  0.50   0.0  1.00  1.00  1.00
 2017 269    28    27  25.1 -25.1 .0810   4.9  0.00  0.00  0.00  0.00 -0.06  0.00  0.00  0.00  0.00 99.90  1.00  61.8  0.33   0.0  1.00  1.00  1.00
 2017 270    29    28  25.0 -25.0 .0855   5.0  0.00  0.00  0.00  0.00 -0.06  0.00  0.00  0.00  0.00 99.90  1.00  61.8  0.61   0.0  1.00  1.00  1.00
 2017 271    30    29  25.2 -25.2 .0900   5.0  0.00  0.00  0.00  0.00 -0.06  0.00  0.00  0.00  0.00 99.90  1.00  61.8  0.52   0.0  1.00  1.00  1.00
 2017 272    31    30  24.9 -24.9 .0946   5.0  0.00  0.01  0.00  0.00 -0.06  0.00  0.00  0.00  0.00 99.90  1.00  64.3  0.54   0.0  1.00  1.00  1.00
 2017 273    32    31  25.5 -25.5 0.099   5.0  0.00  0.00  0.00  0.00 -0.06  0.00  0.00  0.00  0.00 99.90  1.00  61.1  0.52   0.0  1.00  1.00  1.00
 2017 274    33    32  25.5 -25.5 0.104   4.9  0.00  0.00  0.00  0.00 -0.06  0.00  0.00  0.00  0.00 71.55  1.00  58.2  0.81   0.0  1.00  1.00  1.00
 2017 275    34    33  26.0 -26.0 0.108   4.9  0.00  0.00  0.00  0.00 -0.06  0.00  0.00  0.00  0.00 88.04  1.00  57.8  0.66   0.0  1.00  1.00  1.00
 2017 276    35    34  26.0 -26.0 0.112   4.7  0.00  0.00  0.00  0.00 -0.06  0.00  0.00  0.00  0.00 67.74  1.00  61.4  0.91   0.0  1.00  1.00  1.00
 2017 277    36    35  25.5 -25.5 0.117   4.7  0.00  0.00  0.00  0.00 -0.06  0.00  0.00  0.00  0.00 89.67  1.00  64.2  0.72   0.0  1.00  1.00  1.00
 2017 278    37    36  24.0 -24.0 0.121   4.9  0.00  0.07  0.00  0.00 -0.06  0.00  0.00  0.00  0.00 93.86  1.00  74.4  0.79   0.0  1.00  1.00  1.00
 2017 279    38    37  25.6 -25.6 0.126   5.0  0.00  0.00  0.00  0.00 -0.06  0.00  0.00  0.00  0.00 64.70  1.00  69.9  1.08   0.0  1.00  1.00  1.00
 2017 280    39    38  25.4 -25.4 0.130   4.8  0.00  0.00  0.00  0.00 -0.06  0.00  0.00  0.00  0.00 99.90  1.00  73.1  0.72   0.0  1.00  1.00  1.00
 2017 281    40    39  25.2 -25.2 0.134   4.9  0.00  0.00  0.00  0.00 -0.06  0.00  0.00  0.00  0.00 99.90  1.00  77.1  0.70   0.0  1.00  1.00  1.00
 2017 282    41    40  25.6 -25.6 0.139   4.9  0.00  0.00  0.00  0.00 -0.06  0.00  0.00  0.00  0.00 83.66  1.00  73.7  0.88   0.0  1.00  1.00  1.00
 2017 283    42    41  25.6 -25.6 0.143   4.8  0.00  0.00  0.00  0.00 -0.06  0.00  0.00  0.00  0.00 96.76  1.00  77.2  0.80   0.0  1.00  1.00  1.00
 2017 284    43    42  25.2 -25.2 0.148   4.8  0.00  0.00  0.00  0.00 -0.06  0.00  0.00  0.00  0.00 77.51  1.00  78.6  1.01   0.0  1.00  1.00  1.00
 2017 285    44    43  25.4 -25.4 0.152   4.9  0.00  0.00  0.00  0.00 -0.06  0.00  0.00  0.00  0.00 99.90  1.00  82.3  0.78   0.0  1.00  1.00  1.00
 2017 286    45    44  25.1 -25.1 0.157   4.9  0.00  0.00  0.00  0.00 -0.06  0.00  0.00  0.00  0.00 71.04  1.00  79.6  1.12   0.0  1.00  1.00  1.00
 2017 287    46    45  25.6 -25.6 0.161   5.0  0.00  0.00  0.00  0.00 -0.06  0.00  0.00  0.00  0.00 56.13  1.00  74.8  1.33   0.0  1.00  1.00  1.00
 2017 288    47    46  26.0 -26.0 0.166   4.8  0.00  0.00  0.00  0.00 -0.06  0.00  0.00  0.00  0.00 50.33  1.00  70.5  1.40   0.0  1.00  1.00  1.00
 2017 289    48    47  25.9 -25.9 0.170   4.7  0.00  0.00  0.00  0.00 -0.06  0.00  0.00  0.00  0.00 48.80  1.00  66.7  1.37   0.0  1.00  1.00  1.00
 2017 290    49    48  26.1 -26.1 0.174   4.8  0.00  0.00  0.00  0.00 -0.06  0.00  0.00  0.00  0.00 48.98  1.00  64.4  1.31   0.0  1.00  1.00  1.00
 2017 291    50    49  24.7 -24.7 0.178   4.7  0.00  0.02  0.00  0.00 -0.06  0.00  0.00  0.00  0.00 81.01  1.00  68.3  0.84   0.0  1.00  1.00  1.00
 2017 292    51    50  25.3 -25.3 0.183   5.0  0.00  0.00  0.00  0.00 -0.06  0.00  0.00  0.00  0.00 66.86  1.00  69.2  1.04   0.0  1.00  1.00  1.00
 2017 293    52    51  26.0 -26.0 0.187   4.9  0.00  0.00  0.00  0.00 -0.06  0.00  0.00  0.00  0.00 48.24  1.00  69.2  1.43   0.0  1.00  1.00  1.00
 2017 294    53    52  26.0 -26.0 0.192   4.7  0.00  0.00  0.00  0.00 -0.06  0.00  0.00  0.00  0.00 51.71  1.00  69.8  1.35   0.0  1.00  1.00  1.00
 2017 295    54    53  25.5 -25.5 0.196   4.7  0.00  0.00  0.00  0.00 -0.06  0.00  0.00  0.00  0.00 44.40  1.00  70.6  1.59   0.0  1.00  1.00  1.00
 2017 296    55    54  26.2 -26.2 0.200   4.8  0.00  0.00  0.00  0.00 -0.06  0.00  0.00  0.00  0.00 47.99  1.00  70.7  1.47   0.0  1.00  1.00  1.00
 2017 297    56    55  26.7 -26.7 0.205   4.7  0.00  0.00  0.00  0.00 -0.06  0.00  0.00  0.00  0.00 41.52  1.00  70.8  1.71   0.0  1.00  1.00  1.00
 2017 298    57    56  26.2 -26.2 0.209   4.5  0.00  0.00  0.00  0.00 -0.06  0.00  0.00  0.00  0.00 35.48  1.00  70.0  1.97   0.0  1.00  1.00  1.00
 2017 299    58    57  25.7 -25.7 0.213   4.7  0.00  0.00  0.00  0.00 -0.06  0.00  0.00  0.00  0.00 37.78  1.00  70.1  1.86   0.0  1.00  1.00  1.00
 2017 300    59    58  25.3 -25.3 0.217   4.8  0.00  0.00  0.00  0.00 -0.06  0.00  0.00  0.00  0.00 45.31  1.00  72.7  1.60   0.0  1.00  1.00  1.00
 2017 301    60    59  24.5 -24.5 0.222   4.9  0.00  0.03  0.00  0.00 -0.06  0.00  0.00  0.00  0.00 38.27  1.00  70.0  1.83   0.0  1.00  1.00  1.00
 2017 302    61    60  25.4 -25.4 0.226   5.0  0.00  0.00  0.00  0.00 -0.06  0.00  0.00  0.00  0.00 30.93  1.00  66.6  2.15   0.0  1.00  1.00  1.00
 2017 303    62    61  25.5 -25.5 0.231   4.9  0.00  0.00  0.00  0.00 -0.06  0.00  0.00  0.00  0.00 31.65  1.00  64.5  2.04   0.0  1.00  1.00  1.00
 2017 304    63    62  26.2 -26.2 0.235   4.8  0.00  0.00  0.00  0.00 -0.06  0.00  0.00  0.00  0.00 32.49  1.00  62.7  1.93   0.0  1.00  1.00  1.00
 2017 305    64    63  25.0 -25.0 0.239   4.7  0.00  0.00  0.00  0.00 -0.06  0.00  0.00  0.01  0.00 36.90  1.00  61.2  1.66   0.0  1.00  1.00  1.00
 2017 306    65    64  25.1 -25.1 0.244   5.0  0.00  0.00  0.00  0.00 -0.06  0.00  0.00  0.07  0.00 46.90  1.00  60.8  1.30   0.0  1.00  1.00  1.00
 2017 307    66    65  25.3 -25.3 0.248   5.0  0.00  0.00  0.00  0.00 -0.06  0.00  0.00  0.10  0.00 29.91  1.00  61.4  2.05   0.0  1.00  1.00  1.00
 2017 308    67    66  25.5 -25.5 0.252   4.9  0.00  0.00  0.00  0.00 -0.06  0.00  0.00  0.08  0.00 27.81  1.00  63.7  2.29   0.0  1.00  1.00  1.00
 2017 309    68    67  25.1 -25.1 0.256   4.9  0.00  0.00  0.00  0.00 -0.06  0.00  0.00  0.04  0.00 32.93  1.00  64.5  1.96   0.0  1.00  1.00  1.00
 2017 310    69    68  25.5 -25.5 0.261   5.0  0.00  0.00  0.00  0.00 -0.06  0.00  0.00  0.03  0.00 29.65  1.00  65.6  2.21   0.0  1.00  1.00  1.00
 2017 311    70    69  25.7 -25.7 0.265   4.8  0.00  0.00  0.00  0.00 -0.06  0.00  0.00  0.01  0.00 25.32  1.00  62.4  2.47   0.0  1.00  1.00  1.00
 2017 312    71    70  25.5 -25.5 0.269   4.8  0.00  0.00  0.00  0.00 -0.06  0.00  0.00  0.05  0.00 21.06  1.00  58.7  2.79   0.0  1.00  1.00  1.00
 2017 313    72    71  26.1 -26.1 0.273   4.9  0.00  0.00  0.00  0.00 -0.06  0.00  0.00  0.15  0.00 20.70  1.00  56.1  2.71   0.0  1.00  1.00  1.00
 2017 314    73    72  26.1 -26.1 0.276   4.7  0.00  0.00  0.00  0.00 -0.06  0.00  0.00  0.25  0.00 19.00  1.00  54.6  2.87   0.0  1.00  1.00  1.00
 2017 315    74    73  26.0 -26.0 0.279   4.7  0.00  0.00  0.00  0.00 -0.06  0.00  0.00  0.30  0.00 20.93  1.00  53.7  2.57   0.0  1.00  1.00  1.00
 2017 316    75    74  25.3 -25.3 0.282   4.7  0.00  0.00  0.02  0.00 -0.06  0.00  0.00  0.35  0.00 19.14  1.00  54.0  2.82   0.0  1.00  1.00  1.00
 2017 317    76    75  26.2 -26.2 0.285   4.9  0.00  0.00  0.03  0.00 -0.06  0.00  0.00  0.35  0.00 19.68  1.00  53.8  2.73   0.0  1.00  1.00  1.00
 2017 318    77    76  26.1 -26.1 0.287   4.7  0.00  0.00  0.05  0.00 -0.06  0.00  0.00  0.37  0.00 21.97  1.00  53.8  2.45   0.0  1.00  1.00  1.00
 2017 319    78    77  26.2 -26.2 0.290   4.7  0.00  0.00  0.08  0.00 -0.06  0.00  0.00  0.38  0.00 22.40  1.00  53.9  2.41   0.0  1.00  1.00  1.00
 2017 320    79    78  25.8 -25.8 0.293   4.7  0.00  0.00  0.08  0.00 -0.06  0.00  0.00  0.39  0.00 22.61  1.00  54.2  2.40   0.0  1.00  1.00  1.00
 2017 321    80    79  25.9 -25.9 0.295   4.8  0.00  0.00  0.09  0.00 -0.06  0.00  0.00  0.39  0.00 21.16  1.00  56.4  2.66   0.0  1.00  1.00  1.00
 2017 322    81    80  25.7 -25.7 0.298   4.7  0.00  0.00  0.00  0.00 -0.06  0.00  0.00  0.33  0.00 21.11  1.00  56.7  2.69   0.0  1.00  1.00  1.00
 2017 323    82    81  24.5 -24.5 0.301   4.8  0.00  0.03  0.00  0.00 -0.06  0.00  0.00  0.33  0.00 25.35  1.00  58.3  2.30   0.0  1.00  1.00  1.00
 2017 324    83    82  24.4 -24.4 0.304   5.0  0.00  0.04  0.00  0.00 -0.06  0.00  0.00  0.29  0.00 21.35  1.00  57.9  2.71   0.0  1.00  1.00  1.00
 2017 325    84    83  25.5 -25.5 0.307   5.0  0.00  0.00  0.00  0.00 -0.06  0.00  0.00  0.30  0.00 18.53  1.00  56.3  3.04   0.0  1.00  1.00  1.00
 2017 326    85    84  25.6 -25.6 0.310   4.9  0.00  0.00  0.03  0.00 -0.06  0.00  0.00  0.35  0.00 20.71  1.00  55.8  2.69   0.0  1.00  1.00  1.00
 2017 327    86    85  25.0 -25.0 0.313   4.8  0.00  0.00  0.07  0.00 -0.06  0.00  0.00  0.38  0.00 22.81  1.00  57.9  2.54   0.0  1.00  1.00  1.00
 2017 328    87    86  25.5 -25.5 0.316   5.0  0.00  0.00  0.00  0.00 -0.06  0.00  0.00  0.32  0.00 20.67  1.00  56.9  2.75   0.0  1.00  1.00  1.00
 2017 329    88    87  25.7 -25.7 0.319   4.9  0.00  0.00  0.02  0.00 -0.06  0.00  0.00  0.35  0.00 19.06  1.00  55.5  2.91   0.0  1.00  1.00  1.00
 2017 330    89    88  24.8 -24.8 0.322   4.8  0.00  0.01  0.10  0.00 -0.06  0.00  0.00  0.40  0.00 15.82  1.00  54.3  3.43   0.0  1.00  1.00  1.00
 2017 331    90    89  24.5 -24.5 0.324   5.0  0.00  0.03  0.16  0.00 -0.06  0.00  0.00  0.44  0.00 15.29  1.00  53.5  3.50   0.0  1.00  1.00  1.00
 2017 332    91    90  24.0 -24.0 0.327   5.0  0.00  0.07  0.21  0.00 -0.06  0.00  0.00  0.47  0.00 15.52  1.00  52.9  3.41   0.0  1.00  1.00  1.00
 2017 333    92    91  25.1 -25.1 0.329   5.0  0.00  0.00  0.25  0.00 -0.06  0.00  0.00  0.50  0.00 15.59  1.00  52.5  3.37   0.0  1.00  1.00  1.00
 2017 334    93    92  25.5 -25.5 0.331   5.0  0.00  0.00  0.29  0.00 -0.06  0.00  0.00  0.52  0.00 15.30  1.00  52.3  3.42   0.0  1.00  1.00  1.00
 2017 335    94    93  24.4 -24.4 0.333   4.9  0.00  0.04  0.31  0.00 -0.06  0.00  0.00  0.54  0.00 17.68  1.00  52.4  2.96   0.0  1.00  1.00  1.00
 2017 336    95    94  26.0 -26.0 0.335   5.0  0.00  0.00  0.32  0.00 -0.06  0.00  0.00  0.55  0.00 14.97  1.00  52.5  3.51   0.0  1.00  1.00  1.00
 2017 337    96    95  25.8 -25.8 0.337   4.7  0.00  0.00  0.33  0.00 -0.06  0.00  0.00  0.55  0.00 15.06  1.00  52.6  3.49   0.0  1.00  1.00  1.00
 2017 338    97    96  26.3 -26.3 0.339   4.8  0.00  0.00  0.34  0.00 -0.06  0.00  0.00  0.56  0.00 17.09  1.00  52.7  3.08   0.0  1.00  1.00  1.00
 2017 339    98    97  25.2 -25.2 0.341   4.6  0.00  0.00  0.35  0.00 -0.06  0.00  0.00  0.57  0.00 15.25  1.00  52.9  3.47   0.0  1.00  1.00  1.00
 2017 340    99    98  25.9 -25.9 0.343   4.9  0.00  0.00  0.36  0.00 -0.06  0.00  0.00  0.58  0.00 14.45  1.00  53.1  3.67   0.0  1.00  1.00  1.00
 2017 341   100    99  25.8 -25.8 0.344   4.7  0.00  0.00  0.38  0.00 -0.06  0.00  0.00  0.58  0.00 18.08  1.00  53.2  2.94   0.0  1.00  1.00  1.00
 2017 342   101   100  25.3 -25.3 0.346   4.8  0.00  0.00  0.39  0.00 -0.06  0.00  0.00  0.59  0.00 19.98  1.00  56.1  2.81   0.0  1.00  1.00  1.00
 2017 343   102   101  24.5 -24.5 0.348   4.9  0.00  0.03  0.29  0.00 -0.06  0.00  0.00  0.53  0.00 41.54  1.00  59.8  1.44   0.0  1.00  1.00  1.00
 2017 344   103   102  24.2 -24.2 0.351   5.0  0.00  0.05  0.18  0.00 -0.06  0.00  0.00  0.45  0.00 32.41  1.00  59.4  1.83   0.0  1.00  1.00  1.00
 2017 345   104   103  23.8 -23.8 0.353   5.0  0.00  0.08  0.20  0.00 -0.06  0.00  0.02  0.47  0.00 28.15  1.00  58.0  2.06   0.0  1.00  1.00  1.00
 2017 346   105   104  25.1 -25.1 0.355   5.0  0.00  0.00  0.27  0.00 -0.06  0.00  0.00  0.51  0.00 26.91  1.00  57.1  2.12   0.0  1.00  1.00  1.00
 2017 347   106   105  24.9 -24.9 0.357   5.0  0.00  0.01  0.32  0.00 -0.06  0.00  0.00  0.55  0.00 20.00  1.00  56.7  2.83   0.0  1.00  1.00  1.00
 2017 348   107   106  24.8 -24.8 0.359   5.0  0.00  0.02  0.36  0.00 -0.06  0.00  0.00  0.57  0.00 18.84  1.00  56.3  2.99   0.0  1.00  1.00  1.00
 2017 349   108   107  26.0 -26.0 0.361   5.0  0.00  0.00  0.39  0.00 -0.06  0.00  0.00  0.59  0.00 18.29  1.00  56.0  3.06   0.0  1.00  1.00  1.00
 2017 350   109   108  26.0 -26.0 0.363   4.7  0.00  0.00  0.42  0.00 -0.06  0.00  0.00  0.61  0.00 17.25  1.00  56.1  3.25   0.0  1.00  1.00  1.00
 2017 351   110   109  26.0 -26.0 0.365   4.7  0.00  0.00  0.44  0.00 -0.06  0.00  0.00  0.62  0.00 19.83  1.00  61.2  3.09   0.0  1.00  1.00  1.00
 2017 352   111   110  26.2 -26.2 0.367   4.7  0.00  0.00  0.27  0.00 -0.06  0.00  0.00  0.51  0.00 22.50  1.00  66.5  2.96   0.0  1.00  1.00  1.00
 2017 353   112   111  24.6 -24.6 0.369   4.7  0.00  0.02  0.16  0.00 -0.06  0.00  0.00  0.44  0.00 33.46  1.00  85.2  2.55   0.0  1.00  1.00  1.00
 2017 354   113   112  26.2 -26.2 0.373   5.0  0.00  0.00  0.00  0.00 -0.06  0.00  0.00  0.21  0.00 34.70  1.00  92.9  2.68   0.0  1.00  1.00  1.00
 2017 355   114   113  27.0 -27.0 0.377   4.7  0.00  0.00  0.00  0.00 -0.06  0.00  0.00  0.08  0.00 34.10  1.00  97.2  2.85   0.0  1.00  1.00  1.00
 2017 356   115   114  25.8 -25.8 0.380   4.4  0.00  0.00  0.00  0.00 -0.06  0.00  0.00  0.05  0.00 34.72  1.00  94.5  2.72   0.0  1.00  1.00  1.00
 2017 357   116   115  23.6 -23.6 0.385   4.8  0.00  0.09  0.00  0.00 -0.06  0.00  0.03  0.00  0.00 34.15  1.00  91.8  2.69   0.0  1.00  1.00  1.00
 2017 358   117   116  24.7 -24.7 0.389   5.0  0.00  0.02  0.00  0.00 -0.06  0.00  0.00  0.01  0.00 26.31  1.00  88.2  3.35   0.0  1.00  1.00  1.00
 2017 359   118   117  24.1 -24.1 0.393   5.0  0.00  0.06  0.00  0.00 -0.06  0.00  0.00  0.10  0.00 28.33  1.00  85.1  3.00   0.0  1.00  1.00  1.00
 2017 360   119   118  23.8 -23.8 0.397   5.0  0.00  0.08  0.00  0.00 -0.06  0.00  0.02  0.18  0.00 32.48  1.00  82.5  2.54   0.0  1.00  1.00  1.00
 2017 361   120   119  24.2 -24.2 0.401   5.0  0.00  0.05  0.00  0.00 -0.06  0.00  0.00  0.25  0.00 32.72  1.00  80.0  2.45   0.0  1.00  1.00  1.00
 2017 362   121   120  23.5 -23.5 0.404   5.0  0.00  0.10  0.00  0.00 -0.06  0.00  0.04  0.31  0.00 28.21  1.00  77.4  2.74   0.0  1.00  1.00  1.00
 2017 363   122   121  24.0 -24.0 0.407   5.0  0.00  0.07  0.06  0.00 -0.06  0.00  0.00  0.37  0.00 26.76  1.00  75.2  2.81   0.0  1.00  1.00  1.00
 2017 364   123   122  24.5 -24.5 0.409   5.0  0.00  0.03  0.14  0.00 -0.06  0.00  0.00  0.43  0.00 24.81  1.00  74.1  2.98   0.0  1.00  1.00  1.00
 2017 365   124   123  23.8 -23.8 0.412   5.0  0.00  0.08  0.18  0.00 -0.06  0.00  0.02  0.46  0.00 20.92  1.00  73.4  3.51   0.0  1.00  1.00  1.00
 2018   1   125   124  22.5 -22.5 0.414   5.0  0.00  0.16  0.21  0.00 -0.06  0.00  0.12  0.48  0.00 23.44  1.00  72.9  3.11   0.0  1.00  1.00  1.00
 2018   2   126   125  22.5 -22.5 0.416   5.0  0.00  0.17  0.24  0.00 -0.06  0.00  0.13  0.49  0.00 25.55  1.00  72.6  2.84   0.0  1.00  1.00  1.00
[...]
 2020  82   274   273  29.7 -29.7 0.726   3.9  0.00  0.00  0.91  0.00 -0.06  0.00  0.00  0.94  0.00 20.16  1.00  35.3  1.75   0.0  1.00  1.00  1.00
 2020  83   275   274  29.4 -29.4 0.726   3.7  0.00  0.00  0.91  0.00 -0.06  0.00  0.00  0.94  0.00 23.79  1.00  34.8  1.46   0.0  1.00  1.00  1.00
 2020  84   276   275  25.5 -25.5 0.726   3.7  0.00  0.00  0.91  0.00 -0.06  0.00  0.00  0.94  0.00 74.11  1.00  81.0  1.09   0.0  1.00  1.00  1.00
 2020  85   277   276  25.8 -25.8 0.729   4.9  0.00  0.00  0.20  0.00 -0.06  0.00  0.00  0.47  0.00 88.85  1.00  94.7  1.07   0.0  1.00  1.00  1.00
 2020  86   278   277  27.0 -27.0 0.731   4.8  0.00  0.00  0.05  0.00 -0.06  0.00  0.00  0.37  0.00 72.16  1.00  89.4  1.24   0.0  1.00  1.00  1.00
 2020  87   279   278  28.3 -28.3 0.734   4.4  0.00  0.00  0.00  0.00 -0.06  0.00  0.00  0.29  0.00 65.68  1.00  84.0  1.28   0.0  1.00  1.00  1.00
 2020  88   280   279  29.1 -29.1 0.737   4.1  0.00  0.00  0.00  0.00 -0.06  0.00  0.00  0.29  0.00 60.42  1.00  78.3  1.30   0.0  1.00  1.00  1.00
 2020  89   281   280  28.0 -28.0 0.739   3.8  0.00  0.00  0.03  0.00 -0.06  0.00  0.00  0.35  0.00 71.74  1.00  78.0  1.09   0.0  1.00  1.00  1.00
 2020  90   282   281  28.6 -28.6 0.742   4.1  0.00  0.00  0.03  0.00 -0.06  0.00  0.00  0.35  0.00 95.64  1.00  76.4  0.80   0.0  1.00  1.00  1.00
 2020  91   283   282  25.6 -25.6 0.744   4.0  0.00  0.00  0.06  0.00 -0.06  0.00  0.00  0.37  0.00 99.90  1.00 109.3  0.76   0.0  1.00  1.00  1.00
 2020  92   284   283  26.5 -26.5 0.747   4.8  0.00  0.00  0.00  0.00 -0.06  0.00  0.00  0.22  0.00 99.90  1.00 107.3  0.86   0.0  1.00  1.00  1.00
 2020  93   285   284  26.0 -26.0 0.751   4.6  0.00  0.00  0.00  0.00 -0.06  0.00  0.00  0.17  0.00 99.90  1.00 102.5  0.64   0.0  1.00  1.00  1.00
 2020  94   286   285  27.5 -27.5 0.755   4.7  0.00  0.00  0.00  0.00 -0.06  0.00  0.00  0.12  0.00 99.90  1.00  97.5  0.92   0.0  1.00  1.00  1.00
 2020  95   287   286  27.7 -27.7 0.758   4.3  0.00  0.00  0.00  0.00 -0.06  0.00  0.00  0.13  0.00 99.90  1.00  92.7  0.86   0.0  1.00  1.00  1.00
 2020  96   288   287  27.4 -27.4 0.761   4.2  0.00  0.00  0.00  0.00 -0.06  0.00  0.00  0.17  0.00 99.90  1.00  90.9  0.86   0.0  1.00  1.00  1.00
 2020  97   289   288  27.4 -27.4 0.764   4.3  0.00  0.00  0.00  0.00 -0.06  0.00  0.00  0.19  0.00 99.90  1.00  93.6  0.91   0.0  1.00  1.00  1.00
 2020  98   290   289  25.9 -25.9 0.768   4.3  0.00  0.00  0.00  0.00 -0.06  0.00  0.00  0.15  0.00 99.90  1.00 125.2  0.85   0.0  1.00  1.00  1.00
 2020  99   291   290  25.3 -25.3 0.772   4.8  0.00  0.00  0.00  0.00 -0.06  0.00  0.00  0.08  0.00 99.90  1.00 130.7  0.69   0.0  1.00  1.00  1.00
 2020 100   292   291  24.2 -24.2 0.776   4.9  0.00  0.05  0.00  0.00 -0.06  0.00  0.00  0.04  0.00 99.90  1.00 146.0  0.67   0.0  1.00  1.00  1.00
 2020 101   293   292  25.2 -25.2 0.781   5.0  0.00  0.00  0.00  0.00 -0.06  0.00  0.00  0.00  0.00 99.90  1.00 155.7  0.61   0.0  1.00  1.00  1.00
 2020 102   294   293  24.9 -24.9 0.785   4.9  0.00  0.01  0.00  0.00 -0.06  0.00  0.00  0.00  0.00 99.90  1.00 169.4  0.69   0.0  1.00  1.00  1.00
 2020 103   295   294  24.5 -24.5 0.790   5.0  0.00  0.03  0.00  0.00 -0.06  0.00  0.00  0.00  0.00 99.90  1.00 165.3  0.78   0.0  1.00  1.00  1.00
 2020 104   296   295  25.5 -25.5 0.794   5.0  0.00  0.00  0.00  0.00 -0.06  0.00  0.00  0.00  0.00 99.90  1.00 160.2  0.96   0.0  1.00  1.00  1.00
 2020 105   297   296  25.5 -25.5 0.799   4.9  0.00  0.00  0.00  0.00 -0.06  0.00  0.00  0.00  0.00 99.90  1.00 167.1  1.05   0.0  1.00  1.00  1.00
 2020 106   298   297  26.0 -26.0 0.803   4.8  0.00  0.00  0.00  0.00 -0.06  0.00  0.00  0.00  0.00 99.90  1.00 173.0  1.00   0.0  1.00  1.00  1.00
 2020 107   299   298  27.2 -27.2 0.807   4.7  0.00  0.00  0.00  0.00 -0.06  0.00  0.00  0.00  0.00 99.90  1.00 167.4  1.10   0.0  1.00  1.00  1.00
 2020 108   300   299  26.8 -26.8 0.811   4.4  0.00  0.00  0.00  0.00 -0.06  0.00  0.00  0.00  0.00 99.90  1.00 161.9  1.11   0.0  1.00  1.00  1.00
 2020 109   301   300  25.8 -25.8 0.815   4.5  0.00  0.00  0.00  0.00 -0.06  0.00  0.00  0.00  0.00 99.90  1.00 156.4  1.09   0.0  1.00  1.00  1.00
 2020 110   302   301  27.7 -27.7 0.820   4.8  0.00  0.00  0.00  0.00 -0.06  0.00  0.00  0.00  0.00 99.90  1.00 154.4  1.08   0.0  1.00  1.00  1.00
 2020 111   303   302  27.2 -27.2 0.824   4.2  0.00  0.00  0.00  0.00 -0.06  0.00  0.00  0.00  0.00 99.90  1.00 152.5  1.01   0.0  1.00  1.00  1.00
 2020 112   304   303  27.2 -27.2 0.828   4.4  0.00  0.00  0.00  0.00 -0.06  0.00  0.00  0.00  0.00 99.90  1.00 150.9  1.04   0.0  1.00  1.00  1.00
 2020 113   305   304  27.1 -27.1 0.831   4.4  0.00  0.00  0.00  0.00 -0.06  0.00  0.00  0.00  0.00 99.90  1.00 149.5  0.98   0.0  1.00  1.00  1.00
 2020 114   306   305  27.7 -27.7 0.835   4.4  0.00  0.00  0.00  0.00 -0.06  0.00  0.00  0.00  0.00 99.90  1.00 148.1  1.02   0.0  1.00  1.00  1.00
 2020 115   307   306  27.1 -27.1 0.839   4.2  0.00  0.00  0.00  0.00 -0.06  0.00  0.00  0.00  0.00 99.90  1.00 146.9  1.03   0.0  1.00  1.00  1.00
 2020 116   308   307  27.8 -27.8 0.843   4.4  0.00  0.00  0.00  0.00 -0.06  0.00  0.00  0.00  0.00 99.90  1.00 147.9  1.09   0.0  1.00  1.00  1.00
 2020 117   309   308  26.5 -26.5 0.847   4.2  0.00  0.00  0.00  0.00 -0.06  0.00  0.00  0.00  0.00 99.90  1.00 156.3  1.05   0.0  1.00  1.00  1.00
 2020 118   310   309  25.3 -25.3 0.851   4.6  0.00  0.00  0.00  0.00 -0.06  0.00  0.00  0.00  0.00 99.90  1.00 179.2  1.10   0.0  1.00  1.00  1.00
 2020 119   311   310  26.2 -26.2 0.856   4.9  0.00  0.00  0.00  0.00 -0.06  0.00  0.00  0.00  0.00 99.90  1.00 176.5  1.15   0.0  1.00  1.00  1.00
 2020 120   312   311  26.0 -26.0 0.860   4.6  0.00  0.00  0.00  0.00 -0.06  0.00  0.00  0.00  0.00 99.90  1.00 199.6  1.05   0.0  1.00  1.00  1.00
 2020 121   313   312  25.5 -25.5 0.864   4.7  0.00  0.00  0.00  0.00 -0.06  0.00  0.00  0.00  0.00 99.90  1.00 223.6  1.00   0.0  1.00  1.00  1.00
 2020 122   314   313  25.7 -25.7 0.869   4.9  0.00  0.00  0.00  0.00 -0.06  0.00  0.00  0.00  0.00 99.90  1.00 219.6  1.15   0.0  1.00  1.00  1.00
 2020 123   315   314  25.7 -25.7 0.873   4.8  0.00  0.00  0.00  0.00 -0.06  0.00  0.00  0.00  0.00 99.90  1.00 216.4  1.12   0.0  1.00  1.00  1.00
 2020 124   316   315  25.8 -25.8 0.878   4.8  0.00  0.00  0.00  0.00 -0.06  0.00  0.00  0.00  0.00 99.90  1.00 213.5  1.07   0.0  1.00  1.00  1.00
 2020 125   317   316  25.5 -25.5 0.882   4.8  0.00  0.00  0.00  0.00 -0.06  0.00  0.00  0.00  0.00 99.90  1.00 211.3  1.13   0.0  1.00  1.00  1.00
 2020 126   318   317  27.3 -27.3 0.886   4.9  0.00  0.00  0.00  0.00 -0.06  0.00  0.00  0.00  0.00 99.90  1.00 206.8  1.15   0.0  1.00  1.00  1.00
 2020 127   319   318  27.0 -27.0 0.890   4.3  0.00  0.00  0.00  0.00 -0.06  0.00  0.00  0.00  0.00 99.90  1.00 201.3  1.39   0.0  1.00  1.00  1.00
 2020 128   320   319  27.7 -27.7 0.894   4.4  0.00  0.00  0.00  0.00 -0.06  0.00  0.00  0.00  0.00 99.90  1.00 197.8  1.12   0.0  1.00  1.00  1.00
 2020 129   321   320  27.7 -27.7 0.898   4.2  0.00  0.00  0.00  0.00 -0.06  0.00  0.00  0.00  0.00 99.90  1.00 195.3  1.22   0.0  1.00  1.00  1.00
 2020 130   322   321  26.5 -26.5 0.902   4.2  0.00  0.00  0.00  0.00 -0.06  0.00  0.00  0.00  0.00 99.90  1.00 220.0  0.91   0.0  1.00  1.00  1.00
 2020 131   323   322  26.3 -26.3 0.906   4.6  0.00  0.00  0.00  0.00 -0.06  0.00  0.00  0.00  0.00 99.90  1.00 255.4  1.22   0.0  1.00  1.00  1.00
 2020 132   324   323  25.8 -25.8 0.910   4.6  0.00  0.00  0.00  0.00 -0.06  0.00  0.00  0.00  0.00 99.90  1.00 251.6  1.00   0.0  1.00  1.00  1.00
 2020 133   325   324  26.2 -26.2 0.915   4.8  0.00  0.00  0.00  0.00 -0.06  0.00  0.00  0.00  0.00 99.90  1.00 246.5  1.30   0.0  1.00  1.00  1.00
 2020 134   326   325  27.4 -27.4 0.919   4.6  0.00  0.00  0.00  0.00 -0.06  0.00  0.00  0.00  0.00 99.90  1.00 225.3  1.33   0.0  1.00  1.00  1.00
 2020 135   327   326  27.2 -27.2 0.923   4.3  0.00  0.00  0.00  0.00 -0.06  0.00  0.00  0.00  0.00 99.90  1.00 218.6  1.48   0.0  1.00  1.00  1.00
 2020 136   328   327  26.2 -26.2 0.927   4.4  0.00  0.00  0.00  0.00 -0.06  0.00  0.00  0.00  0.00 99.90  1.00 215.2  1.07   0.0  1.00  1.00  1.00
 2020 137   329   328  26.0 -26.0 0.931   4.7  0.00  0.00  0.00  0.00 -0.06  0.00  0.00  0.00  0.00 99.90  1.00 224.8  1.34   0.0  1.00  1.00  1.00
 2020 138   330   329  25.9 -25.9 0.935   4.7  0.00  0.00  0.00  0.00 -0.06  0.00  0.00  0.00  0.00 99.90  1.00 222.7  1.33   0.0  1.00  1.00  1.00
 2020 139   331   330  26.7 -26.7 0.940   4.7  0.00  0.00  0.00  0.00 -0.06  0.00  0.00  0.00  0.00 99.90  1.00 221.0  1.39   0.0  1.00  1.00  1.00
 2020 140   332   331  26.2 -26.2 0.944   4.5  0.00  0.00  0.00  0.00 -0.06  0.00  0.00  0.00  0.00 99.90  1.00 223.3  0.96   0.0  1.00  1.00  1.00
 2020 141   333   332  25.8 -25.8 0.948   4.6  0.00  0.00  0.00  0.00 -0.06  0.00  0.00  0.00  0.00 99.90  1.00 225.9  1.28   0.0  1.00  1.00  1.00
 2020 142   334   333  25.4 -25.4 0.952   4.8  0.00  0.00  0.00  0.00 -0.06  0.00  0.00  0.00  0.00 99.90  1.00 234.9  1.38   0.0  1.00  1.00  1.00
 2020 143   335   334  26.0 -26.0 0.957   4.9  0.00  0.00  0.00  0.00 -0.06  0.00  0.00  0.00  0.00 99.90  1.00 283.9  1.21   0.0  1.00  1.00  1.00
 2020 144   336   335  25.3 -25.3 0.961   4.7  0.00  0.00  0.00  0.00 -0.06  0.00  0.00  0.00  0.00 99.90  1.00 275.0  1.33   0.0  1.00  1.00  1.00
 2020 145   337   336  24.7 -24.7 0.966   4.9  0.00  0.02  0.00  0.00 -0.06  0.00  0.00  0.00  0.00 99.90  1.00 283.2  0.99   0.0  1.00  1.00  1.00
 2020 146   338   337  25.0 -25.0 0.970   5.0  0.00  0.00  0.00  0.00 -0.06  0.00  0.00  0.00  0.00 99.90  1.00 279.9  1.25   0.0  1.00  1.00  1.00
 2020 147   339   338  25.6 -25.6 0.975   5.0  0.00  0.00  0.00  0.00 -0.06  0.00  0.00  0.00  0.00 99.90  1.00 270.7  1.37   0.0  1.00  1.00  1.00
 2020 148   340   339  25.3 -25.3 0.979   4.8  0.00  0.00  0.00  0.00 -0.06  0.00  0.00  0.00  0.00 99.90  1.00 263.6  0.98   0.0  1.00  1.00  1.00
 2020 149   341   340  25.9 -25.9 0.984   4.9  0.00  0.00  0.00  0.00 -0.06  0.00  0.00  0.00  0.00 99.90  1.00 252.3  1.29   0.0  1.00  1.00  1.00
 2020 150   342   341  26.7 -26.7 0.988   4.8  0.00  0.00  0.00  0.00 -0.06  0.00  0.00  0.00  0.00 99.90  1.00 241.7  1.28   0.0  1.00  1.00  1.00
 2020 151   343   342  26.0 -26.0     1   4.5  0.00  0.00  0.00  0.00 -0.06  0.00  0.00  0.00  0.00 99.90  1.00 232.3  1.39   0.0  1.00  1.00  1.00
 2020 152   344   343  26.0 -26.0     1   4.7  0.00  0.00  0.00  0.00 -0.06  0.00  0.00  0.00  0.00 99.90  1.00 225.0  1.29   0.0  1.00  1.00  1.00
 2020 153   345   344  25.6 -25.6 1.001   5.8  0.00  0.00  0.00  0.00 -0.06  0.00  0.00  0.00  0.00 99.90  1.00 218.3  1.30   0.0  1.00  1.00  1.00
 2020 154   346   345  26.5 -26.5 1.005   4.8  0.00  0.00  0.00  0.00 -0.06  0.00  0.00  0.00  0.00 99.90  1.00 213.8  1.30   0.0  1.00  1.00  1.00
 2020 155   347   346  26.5 -26.5 1.008   4.6  0.00  0.00  0.00  0.00 -0.06  0.00  0.00  0.00  0.00 99.90  1.00 211.0  1.48   0.0  1.00  1.00  1.00
 2020 156   348   347  25.2 -25.2 1.011   4.6  0.00  0.00  0.00  0.00 -0.06  0.00  0.00  0.00  0.00 99.90  1.00 209.8  1.07   0.0  1.00  1.00  1.00
 2020 157   349   348  25.9 -25.9 1.015   4.9  0.00  0.00  0.00  0.00 -0.06  0.00  0.00  0.00  0.00 99.90  1.00 213.0  1.19   0.0  1.00  1.00  1.00
 2020 158   350   349  25.0 -25.0 1.019   4.8  0.00  0.00  0.00  0.00 -0.06  0.00  0.00  0.00  0.00 99.90  1.00 217.2  1.07   0.0  1.00  1.00  1.00
 2020 159   351   350  26.5 -26.5 1.022   5.0  0.00  0.00  0.00  0.00 -0.06  0.00  0.00  0.00  0.00 99.90  1.00 223.8  1.63   0.0  1.00  1.00  1.00
 2020 160   352   351  27.0 -27.0 1.026   4.6  0.00  0.00  0.00  0.00 -0.06  0.00  0.00  0.00  0.00 99.90  1.00 227.0  1.54   0.0  1.00  1.00  1.00
 2020 161   353   352  24.4 -24.4 1.029   4.4  0.00  0.04  0.00  0.00 -0.06  0.00  0.00  0.00  0.00 99.90  1.00 251.2  1.09   0.0  1.00  1.00  1.00
 2020 162   354   353  24.5 -24.5 1.032   5.0  0.00  0.03  0.00  0.00 -0.06  0.00  0.00  0.00  0.00 99.90  1.00 248.0  1.60   0.0  1.00  1.00  1.00
 2020 163   355   354  24.8 -24.8 1.036   5.0  0.00  0.02  0.00  0.00 -0.06  0.00  0.00  0.00  0.00 99.90  1.00 255.7  1.55   0.0  1.00  1.00  1.00
 2020 164   356   355  25.9 -25.9 1.040   5.0  0.00  0.00  0.00  0.00 -0.06  0.00  0.00  0.00  0.00 99.90  1.00 260.6  1.16   0.0  1.00  1.00  1.00
 2020 165   357   356  24.2 -24.2 1.043   4.7  0.00  0.05  0.00  0.00 -0.06  0.00  0.00  0.00  0.00 99.90  1.00 258.4  1.61   0.0  1.00  1.00  1.00
 2020 166   358   357  25.7 -25.7 1.047   5.0  0.00  0.00  0.00  0.00 -0.06  0.00  0.00  0.00  0.00 99.90  1.00 255.0  1.66   0.0  1.00  1.00  1.00
 2020 167   359   358  25.6 -25.6 1.050   4.8  0.00  0.00  0.00  0.00 -0.06  0.00  0.00  0.00  0.00 99.90  1.00 246.4  1.59   0.0  1.00  1.00  1.00
 2020 168   360   359  25.9 -25.9 1.054   4.8  0.00  0.00  0.00  0.00 -0.06  0.00  0.00  0.00  0.00 99.90  1.00 237.7  1.64   0.0  1.00  1.00  1.00
 2020 169   361   360  25.3 -25.3 1.057   4.7  0.00  0.00  0.00  0.00 -0.06  0.00  0.00  0.00  0.00 99.90  1.00 231.9  1.39   0.0  1.00  1.00  1.00
 2020 170   362   361  24.1 -24.1 1.061   4.9  0.00  0.06  0.00  0.00 -0.06  0.00  0.00  0.00  0.00 99.90  1.00 228.4  1.31   0.0  1.00  1.00  1.00
 2020 171   363   362  24.3 -24.3 1.065   5.0  0.00  0.04  0.00  0.00 -0.06  0.00  0.00  0.00  0.00 99.90  1.00 223.7  1.52   0.0  1.00  1.00  1.00
 2020 172   364   363  25.5 -25.5 1.068   5.0  0.00  0.00  0.00  0.00 -0.06  0.00  0.00  0.00  0.00 99.90  1.00 217.1  1.72   0.0  1.00  1.00  1.00
 2020 173   365   364  25.4 -25.4 1.072   4.8  0.00  0.00  0.00  0.00 -0.06  0.00  0.00  0.00  0.00 99.90  1.00 212.6  1.62   0.0  1.00  1.00  1.00
 2020 174   366   365  24.5 -24.5 1.075   4.9  0.00  0.03  0.00  0.00 -0.06  0.00  0.00  0.00  0.00 99.90  1.00 209.3  1.35   0.0  1.00  1.00  1.00
 2020 175   367   366  24.9 -24.9 1.079   5.0  0.00  0.01  0.00  0.00 -0.06  0.00  0.00  0.00  0.00 99.90  1.00 205.5  1.86   0.0  1.00  1.00  1.00
 2020 176   368   367  25.8 -25.8 1.083   5.0  0.00  0.00  0.00  0.00 -0.06  0.00  0.00  0.00  0.00 99.90  1.00 202.8  1.90   0.0  1.00  1.00  1.00
 2020 177   369   368  25.5 -25.5 1.086   4.8  0.00  0.00  0.00  0.00 -0.06  0.00  0.00  0.00  0.00 99.90  1.00 201.0  1.74   0.0  1.00  1.00  1.00
 2020 178   370   369  25.0 -25.0 1.090   4.9  0.00  0.00  0.00  0.00 -0.06  0.00  0.00  0.00  0.00 99.90  1.00 200.4  1.47   0.0  1.00  1.00  1.00
 2020 179   371   370  24.3 -24.3 1.093   5.0  0.00  0.05  0.00  0.00 -0.06  0.00  0.00  0.00  0.00 99.90  1.00 198.8  1.73   0.0  1.00  1.00  1.00
 2020 180   372   371  24.0 -24.0 1.097   5.0  0.00  0.07  0.00  0.00 -0.06  0.00  0.00  0.00  0.00 99.90  1.00 199.2  1.24   0.0  1.00  1.00  1.00
 2020 181   373   372  24.3 -24.3 1.101   5.0  0.00  0.04  0.00  0.00 -0.06  0.00  0.00  0.00  0.00 99.90  1.00 204.0  1.25   0.0  1.00  1.00  1.00
 2020 182   374   373  24.9 -24.9 1.104   5.0  0.00  0.01  0.00  0.00 -0.06  0.00  0.00  0.00  0.00 99.90  1.00 201.4  1.50   0.0  1.00  1.00  1.00
 2020 183   375   374  25.0 -25.0 1.108   5.0  0.00  0.00  0.00  0.00 -0.06  0.00  0.00  0.00  0.00 99.90  1.00 196.9  1.83   0.0  1.00  1.00  1.00
 2020 184   376   375  25.4 -25.4 1.112   5.0  0.00  0.00  0.00  0.00 -0.06  0.00  0.00  0.00  0.00 89.61  1.00 191.7  2.14   0.0  1.00  1.00  1.00
 2020 185   377   376  25.4 -25.4 1.115   4.9  0.00  0.00  0.00  0.00 -0.06  0.00  0.00  0.00  0.00 99.90  1.00 197.2  1.50   0.0  1.00  1.00  1.00
 2020 186   378   377  23.7 -23.7 1.119   4.9  0.00  0.09  0.00  0.00 -0.06  0.00  0.02  0.00  0.00 99.90  1.00 200.2  0.96   0.0  1.00  1.00  1.00
 2020 187   379   378  23.7 -23.7 1.122   5.0  0.00  0.09  0.00  0.00 -0.06  0.00  0.02  0.00  0.00 99.90  1.00 248.5  1.75   0.0  1.00  1.00  1.00
 2020 188   380   379  24.5 -24.5 1.126   5.0  0.00  0.03  0.00  0.00 -0.06  0.00  0.00  0.00  0.00 99.90  1.00 279.2  1.71   0.0  1.00  1.00  1.00
 2020 189   381   380  24.2 -24.2 1.130   5.0  0.00  0.06  0.00  0.00 -0.06  0.00  0.00  0.00  0.00 99.90  1.00 321.2  1.57   0.0  1.00  1.00  1.00
 2020 190   382   381  24.6 -24.6 1.133   5.0  0.00  0.03  0.00  0.00 -0.06  0.00  0.00  0.00  0.00 99.90  1.00 330.4  1.97   0.0  1.00  1.00  1.00
 2020 191   383   382  24.7 -24.7 1.137   5.0  0.00  0.02  0.00  0.00 -0.06  0.00  0.00  0.00  0.00 99.90  1.00 331.0  1.72   0.0  1.00  1.00  1.00
 2020 192   384   383  23.2 -23.2 1.141   5.0  0.00  0.12  0.00  0.00 -0.06  0.00  0.07  0.00  0.00 99.90  1.00 308.7  1.44   0.0  1.00  1.00  1.00
 2020 193   385   384  24.1 -24.1 1.144   5.0  0.00  0.06  0.00  0.00 -0.06  0.00  0.00  0.00  0.00 99.90  1.00 290.7  1.85   0.0  1.00  1.00  1.00
 2020 194   386   385  23.6 -23.6 1.148   5.0  0.00  0.09  0.00  0.00 -0.06  0.00  0.03  0.00  0.00 99.90  1.00 283.3  0.91   0.0  1.00  1.00  1.00
 2020 195   387   386  24.0 -24.0 1.152   5.0  0.00  0.07  0.00  0.00 -0.06  0.00  0.00  0.00  0.00 99.90  1.00 269.2  1.72   0.0  1.00  1.00  1.00
 2020 196   388   387  23.3 -23.3 1.155   5.0  0.00  0.11  0.00  0.00 -0.06  0.00  0.06  0.00  0.00 99.90  1.00 265.8  1.49   0.0  1.00  1.00  1.00
 2020 197   389   388  23.5 -23.5 1.159   5.0  0.00  0.10  0.00  0.00 -0.06  0.00  0.04  0.00  0.00 99.90  1.00 269.9  1.30   0.0  1.00  1.00  1.00
 2020 198   390   389  23.1 -23.1 1.163   5.0  0.00  0.13  0.00  0.00 -0.06  0.00  0.08  0.00  0.00 99.90  1.00 274.7  1.58   0.0  1.00  1.00  1.00
 2020 199   391   390  22.5 -22.5 1.166   5.0  0.00  0.17  0.00  0.00 -0.06  0.00  0.12  0.00  0.00 99.90  1.00 285.1  1.56   0.0  1.00  1.00  1.00
 2020 200   392   391  22.9 -22.9 1.170   5.0  0.00  0.14  0.00  0.00 -0.06  0.00  0.09  0.00  0.00 99.90  1.00 284.0  1.60   0.0  1.00  1.00  1.00
 2020 201   393   392  23.4 -23.4 1.174   5.0  0.00  0.11  0.00  0.00 -0.06  0.00  0.05  0.00  0.00 99.90  1.00 275.1  1.70   0.0  1.00  1.00  1.00
 2020 202   394   393  23.4 -23.4 1.177   5.0  0.00  0.11  0.00  0.00 -0.06  0.00  0.05  0.00  0.00 99.90  1.00 278.2  1.76   0.0  1.00  1.00  1.00
 2020 203   395   394  23.1 -23.1 1.181   5.0  0.00  0.13  0.00  0.00 -0.06  0.00  0.08  0.00  0.00 99.90  1.00 291.0  1.91   0.0  1.00  1.00  1.00
 2020 204   396   395  23.5 -23.5 1.185   5.0  0.00  0.10  0.00  0.00 -0.06  0.00  0.05  0.00  0.00 99.90  1.00 294.3  1.73   0.0  1.00  1.00  1.00
 2020 205   397   396  23.1 -23.1 1.188   5.0  0.00  0.13  0.00  0.00 -0.06  0.00  0.08  0.00  0.00 99.90  1.00 324.0  1.88   0.0  1.00  1.00  1.00
 2020 206   398   397  22.8 -22.8 1.192   5.0  0.00  0.15  0.00  0.00 -0.06  0.00  0.10  0.00  0.00 99.90  1.00 323.2  1.44   0.0  1.00  1.00  1.00
 2020 207   399   398  24.0 -24.0 1.195   5.0  0.00  0.07  0.00  0.00 -0.06  0.00  0.00  0.00  0.00 99.90  1.00 304.9  1.76   0.0  1.00  1.00  1.00
 2020 208   400   399  24.2 -24.2 1.199   5.0  0.00  0.05  0.00  0.00 -0.06  0.00  0.00  0.00  0.00 99.90  1.00 294.8  1.82   0.0  1.00  1.00  1.00
 2020 209   401   400  23.6 -23.6 1.203   5.0  0.00  0.09  0.00  0.00 -0.06  0.00  0.03  0.00  0.00 99.90  1.00 311.8  1.13   0.0  1.00  1.00  1.00
 2020 210   402   401  24.2 -24.2 1.206   5.0  0.00  0.06  0.00  0.00 -0.06  0.00  0.00  0.00  0.00 99.90  1.00 290.3  2.19   0.0  1.00  1.00  1.00
 2020 211   403   402  24.0 -24.0 1.210   5.0  0.00  0.07  0.00  0.00 -0.06  0.00  0.00  0.00  0.00 99.90  1.00 273.2  2.05   0.0  1.00  1.00  1.00
 2020 212   404   403  23.6 -23.6 1.214   5.0  0.00  0.09  0.00  0.00 -0.06  0.00  0.03  0.00  0.00 99.90  1.00 260.8  1.37   0.0  1.00  1.00  1.00
 2020 213   405   404  22.8 -22.8 1.217   5.0  0.00  0.14  0.00  0.00 -0.06  0.00  0.10  0.00  0.00 99.90  1.00 261.1  1.77   0.0  1.00  1.00  1.00
 2020 214   406   405  23.6 -23.6 1.221   5.0  0.00  0.09  0.00  0.00 -0.06  0.00  0.03  0.00  0.00 99.90  1.00 250.0  1.61   0.0  1.00  1.00  1.00
 2020 215   407   406  24.0 -24.0 1.225   5.0  0.00  0.07  0.00  0.00 -0.06  0.00  0.00  0.00  0.00 99.90  1.00 242.3  1.80   0.0  1.00  1.00  1.00
 2020 216   408   407  22.7 -22.7 1.228   5.0  0.00  0.16  0.00  0.00 -0.06  0.00  0.11  0.00  0.00 99.90  1.00 244.5  0.56   0.0  1.00  1.00  1.00
