$GROWTH ASPECTS SECONDARY OUTPUTS FILE

*DSSAT Cropping System Model Ver. 4.8.0.019 -develop  APR 08, 2023 12:34:37

*RUN   1        : IITA-TMS-IBA000070        CSYCA048 UYAB1901    1
 MODEL          : CSYCA048 - Cassava
 EXPERIMENT     : UYAB1901 CS UYT_GXE
 DATA PATH      :
 TREATMENT  1   : IITA-TMS-IBA000070        CSYCA048
  
@YEAR DOY   DAS   DAP TMEAN  GSTD  RSTD LAIPD LAISD  LAID  CHTD SDWAD SNWLD SNWSD SHRTD  RDPD  RL1D  RL2D  RL3D  RL4D  RL5D  RL6D  RL7D  RL8D  RL9D RL10D
 2019 169     1     0  28.8     0  0.00     0  0.00     0     0-734.3     0     0  0.00  0.20 0.000  0.00  0.00  0.00  0.00  0.00  0.00  0.00  0.00  0.00
 2019 170     2     1  29.1     0  0.00     0  0.00     0     0-734.3     0     0  0.00  0.20 0.000  0.00  0.00  0.00  0.00  0.00  0.00  0.00  0.00  0.00
 2019 171     3     2  26.5     0  0.00     0  0.00     0     0-734.3     0     0  0.00  0.20 0.000  0.00  0.00  0.00  0.00  0.00  0.00  0.00  0.00  0.00
 2019 172     4     3  26.1     0  0.00     0  0.00     0     0-734.3     0     0  0.00  0.20 0.000  0.00  0.00  0.00  0.00  0.00  0.00  0.00  0.00  0.00
 2019 173     5     4  26.0     0  0.00     0  0.00     0     0-734.3     0     0  0.00  0.20 0.000  0.00  0.00  0.00  0.00  0.00  0.00  0.00  0.00  0.00
 2019 174     6     5  25.8     0  0.00     0  0.00     0     0-734.3     0     0  0.00  0.20 0.000  0.00  0.00  0.00  0.00  0.00  0.00  0.00  0.00  0.00
 2019 175     7     6  24.8     0  0.00     0  0.00     0     0-734.3     0     0  0.00  0.20 0.000  0.00  0.00  0.00  0.00  0.00  0.00  0.00  0.00  0.00
 2019 176     8     7  25.9     0  0.00     0  0.00     0     0-734.3     0     0  0.00  0.20 0.000  0.00  0.00  0.00  0.00  0.00  0.00  0.00  0.00  0.00
 2019 177     9     8  25.2     0  0.00     0  0.00     0     0-741.5     0     0  0.00  0.21 0.000  0.00  0.00  0.00  0.00  0.00  0.00  0.00  0.00  0.00
 2019 178    10     9  24.6 .0045  0.00     0  0.00     0     0-741.5     0     0  0.00  0.22 0.000  0.00  0.00  0.00  0.00  0.00  0.00  0.00  0.00  0.00
 2019 179    11    10  24.8 .0090  0.01     0  0.00     0     0-741.5     0     0  0.00  0.23 0.000  0.00  0.00  0.00  0.00  0.00  0.00  0.00  0.00  0.00
 2019 180    12    11  26.1 .0136  0.01     0  0.00     0     0-741.5     0     0  0.00  0.25 0.000  0.00  0.00  0.00  0.00  0.00  0.00  0.00  0.00  0.00
 2019 181    13    12  26.2 .0179  0.02 .0044  0.00     0 .0050-750.7     0     0******  0.26 0.002  0.00  0.00  0.00  0.00  0.00  0.00  0.00  0.00  0.00
 2019 182    14    13  25.8 .0221  0.02 .0124  0.00 .0044 .0146-763.5     0 .0062******  0.27 0.005  0.00  0.00  0.00  0.00  0.00  0.00  0.00  0.00  0.00
 2019 183    15    14  26.0 .0265  0.03 .0217  0.00 .0124 .0292-777.9     0 .0213******  0.29 0.007  0.01  0.00  0.00  0.00  0.00  0.00  0.00  0.00  0.00
 2019 184    16    15  26.5 .0308  0.03 .0380  0.00 .0217 .0546-798.5     0 .0472******  0.30 0.011  0.01  0.01  0.00  0.00  0.00  0.00  0.00  0.00  0.00
 2019 185    17    16  25.5 .0349  0.03 .0583  0.00 .0380 .0831-822.9     0 .0874-98.49  0.31 0.016  0.01  0.01  0.00  0.00  0.00  0.00  0.00  0.00  0.00
 2019 186    18    17  25.8 .0393  0.04 .0801  0.00 .0583 0.117-848.0     0 0.144-74.30  0.33 0.021  0.02  0.01  0.00  0.00  0.00  0.00  0.00  0.00  0.00
 2019 187    19    18  26.0 .0437  0.04 0.110  0.00 .0801 0.161-878.4     0 0.221-56.46  0.34 0.027  0.02  0.02  0.00  0.00  0.00  0.00  0.00  0.00  0.00
 2019 188    20    19  26.2 .0480  0.05 0.144  0.00 0.110 0.211-912.5     0 0.322-44.54  0.35 0.034  0.03  0.02  0.00  0.00  0.00  0.00  0.00  0.00  0.00
 2019 189    21    20  25.0 .0522  0.05 0.174  0.00 0.144 0.252-948.7     0 0.445-37.21  0.36 0.040  0.03  0.03  0.00  0.00  0.00  0.00  0.00  0.00  0.00
 2019 190    22    21  24.0 .0568  0.06 0.209  0.00 0.174 0.294-982.1     0 0.590-30.84  0.37 0.047  0.04  0.03  0.01  0.00  0.00  0.00  0.00  0.00  0.00
 2019 191    23    22  26.2 .0613  0.06 0.247  0.00 0.209 0.344******     0 0.767-26.31  0.38 0.054  0.05  0.04  0.01  0.00  0.00  0.00  0.00  0.00  0.00
 2019 192    24    23  24.1 .0656  0.07 0.283  0.00 0.247 0.382******     0 0.965-22.87  0.39 0.061  0.05  0.04  0.01  0.00  0.00  0.00  0.00  0.00  0.00
 2019 193    25    24  24.3 .0701  0.07 0.320  0.00 0.283 0.421******     0 1.185-19.94  0.41 0.068  0.06  0.05  0.01  0.00  0.00  0.00  0.00  0.00  0.00
 2019 194    26    25  24.2 .0747  0.07 0.362  0.00 0.320 0.463******     0 1.437-17.29  0.42 0.075  0.06  0.05  0.02  0.00  0.00  0.00  0.00  0.00  0.00
 2019 195    27    26  25.7 .0792  0.08 0.401  0.00 0.362 0.507******     0 1.731-15.40  0.43 0.082  0.07  0.06  0.02  0.00  0.00  0.00  0.00  0.00  0.00
 2019 196    28    27  26.0 .0836  0.08 0.435  0.00 0.401 0.546******     0 2.053-13.79  0.44 0.088  0.08  0.06  0.02  0.00  0.00  0.00  0.00  0.00  0.00
 2019 197    29    28  25.2 .0879  0.09 0.462  0.00 0.435 0.592******     0 2.411-12.65  0.45 0.093  0.08  0.06  0.02  0.00  0.00  0.00  0.00  0.00  0.00
 2019 198    30    29  26.0 .0924  0.09 0.486  0.00 0.462 0.636******     0 2.803-11.56  0.46 0.096  0.08  0.07  0.03  0.00  0.00  0.00  0.00  0.00  0.00
 2019 199    31    30  25.8 .0967  0.10 0.499  0.00 0.486 0.680******     0 3.213-11.02  0.47 0.098  0.08  0.07  0.03  0.00  0.00  0.00  0.00  0.00  0.00
 2019 200    32    31  23.2 0.101  0.10 0.506  0.00 0.499 0.711******     0 3.608-10.78  0.49 0.098  0.08  0.07  0.03  0.00  0.00  0.00  0.00  0.00  0.00
 2019 201    33    32  24.6 0.106  0.11 0.536  0.00 0.506 0.746******     0 3.996 -9.51  0.50 0.103  0.09  0.07  0.03  0.00  0.00  0.00  0.00  0.00  0.00
 2019 202    34    33  25.4 0.110  0.11 0.552  0.00 0.536 0.784******     0 4.414 -8.98  0.51 0.105  0.09  0.07  0.03  0.00  0.00  0.00  0.00  0.00  0.00
 2019 203    35    34  24.2 0.115  0.11 0.572  0.00 0.552 0.818******     0 4.823 -8.26  0.52 0.108  0.09  0.08  0.03  0.00  0.00  0.00  0.00  0.00  0.00
 2019 204    36    35  25.5 0.119  0.12 0.598  0.00 0.572 0.860******     0 5.251 -7.46  0.53 0.112  0.10  0.08  0.03  0.00  0.00  0.00  0.00  0.00  0.00
 2019 205    37    36  25.6 0.124  0.12 0.622  0.00 0.598 0.898******     0 5.722 -6.73  0.54 0.115  0.10  0.08  0.04  0.01  0.00  0.00  0.00  0.00  0.00
 2019 206    38    37  26.0 0.128  0.13 0.624  0.00 0.622 0.943******     0 6.211 -6.72  0.55 0.115  0.10  0.08  0.04  0.01  0.00  0.00  0.00  0.00  0.00
 2019 207    39    38  25.0 0.132  0.13 0.660  0.00 0.624 0.984******     0 6.690 -5.73  0.56 0.120  0.10  0.08  0.04  0.01  0.00  0.00  0.00  0.00  0.00
 2019 208    40    39  25.2 0.137  0.14 0.675  0.00 0.660 1.021******     0 7.207 -5.36  0.57 0.121  0.10  0.08  0.04  0.01  0.00  0.00  0.00  0.00  0.00
 2019 209    41    40  24.5 0.141  0.14 0.704  0.00 0.675 1.056******     0 7.720 -4.67  0.58 0.125  0.11  0.09  0.04  0.01  0.00  0.00  0.00  0.00  0.00
 2019 210    42    41  23.9 0.146  0.15 0.727  0.00 0.704 1.089******     0 8.235 -4.13  0.59 0.128  0.11  0.09  0.04  0.01  0.00  0.00  0.00  0.00  0.00
 2019 211    43    42  24.5 0.150  0.15 0.746  0.00 0.727 1.124******     0 8.765 -3.73  0.61 0.130  0.11  0.09  0.04  0.01  0.00  0.00  0.00  0.00  0.00
 2019 212    44    43  24.8 0.155  0.15 0.775  0.00 0.746 1.160******     0 9.313 -3.15  0.61 0.134  0.11  0.09  0.05  0.02  0.00  0.00  0.00  0.00  0.00
 2019 213    45    44  25.3 0.159  0.16 0.809  0.00 0.775 1.202******     0 9.883 -2.54  0.62 0.139  0.12  0.10  0.05  0.02  0.00  0.00  0.00  0.00  0.00
 2019 214    46    45  24.8 0.164  0.16 0.830  0.00 0.809 1.237******     0 10.48 -2.18  0.63 0.141  0.12  0.10  0.05  0.02  0.00  0.00  0.00  0.00  0.00
 2019 215    47    46  24.4 0.169  0.17 0.861  0.00 0.830 1.272******     0 11.10 -1.66  0.64 0.145  0.12  0.10  0.05  0.02  0.00  0.00  0.00  0.00  0.00
 2019 216    48    47  24.1 0.173  0.17 0.887  0.00 0.861 1.306******     0 11.74 -1.27  0.65 0.149  0.13  0.10  0.05  0.02  0.00  0.00  0.00  0.00  0.00
 2019 217    49    48  23.1 0.178  0.18 0.901  0.00 0.887 1.337******     0 12.36 -1.04  0.66 0.150  0.13  0.10  0.06  0.03  0.00  0.00  0.00  0.00  0.00
 2019 218    50    49  23.8 0.182  0.18 0.925  0.00 0.901 1.370******     0 12.98 -0.69  0.66 0.153  0.13  0.11  0.06  0.03  0.00  0.00  0.00  0.00  0.00
 2019 219    51    50  24.0 0.187  0.19 0.935  0.00 0.925 1.404******     0 13.60 -0.57  0.67 0.154  0.13  0.11  0.06  0.03  0.00  0.00  0.00  0.00  0.00
 2019 220    52    51  24.0 0.191  0.19 0.966  0.00 0.934 1.433******     0 14.21 -0.15  0.68 0.158  0.13  0.11  0.06  0.03  0.00  0.00  0.00  0.00  0.00
 2019 221    53    52  24.2 0.196  0.20 1.004  0.00 0.966 1.463******     0 14.84  0.32  0.69 0.164  0.14  0.11  0.06  0.03  0.00  0.00  0.00  0.00  0.00
 2019 222    54    53  24.4 0.200  0.20 1.035  0.00 1.004 1.493******     0 15.52  0.67  0.69 0.168  0.14  0.12  0.06  0.04  0.00  0.00  0.00  0.00  0.00
 2019 223    55    54  24.2 0.205  0.20 1.058  0.00 1.035 1.523******     0 16.23  0.93  0.70 0.171  0.14  0.12  0.07  0.04  0.00  0.00  0.00  0.00  0.00
 2019 224    56    55  24.3 0.210  0.21 1.080  0.00 1.058 1.558******     0 16.97  1.16  0.71 0.173  0.15  0.12  0.07  0.04  0.00  0.00  0.00  0.00  0.00
 2019 225    57    56  25.0 0.214  0.21 1.132  0.00 1.080 1.594******     0 17.74  1.65  0.72 0.180  0.15  0.13  0.07  0.04  0.00  0.00  0.00  0.00  0.00
 2019 226    58    57  24.6 0.219  0.22 1.169  0.00 1.132 1.630******     0 18.57  1.97  0.72 0.185  0.16  0.13  0.07  0.05  0.00  0.00  0.00  0.00  0.00
 2019 227    59    58  24.0 0.223  0.22 1.194  0.00 1.169 1.663******     0 19.41  2.18  0.73 0.188  0.16  0.13  0.08  0.05  0.00  0.00  0.00  0.00  0.00
 2019 228    60    59  24.4 0.228  0.23 1.223  0.00 1.194 1.694******     0 20.26  2.44  0.74 0.192  0.16  0.13  0.08  0.05  0.00  0.00  0.00  0.00  0.00
 2019 229    61    60  23.5 0.232  0.23 1.271  0.00 1.223 1.726******     0 21.13  2.81  0.75 0.198  0.17  0.14  0.08  0.05  0.00  0.00  0.00  0.00  0.00
 2019 230    62    61  24.8 0.237  0.24 1.305  0.00 1.271 1.762******     0 22.02  3.04  0.76 0.202  0.17  0.14  0.08  0.06  0.00  0.00  0.00  0.00  0.00
 2019 231    63    62  22.4 0.241  0.24 1.318  0.00 1.302 1.787******     0 22.90  3.15  0.76 0.203  0.17  0.14  0.08  0.06  0.00  0.00  0.00  0.00  0.00
 2019 232    64    63  23.7 0.246  0.25 1.353  0.00 1.318 1.816******     0 23.79  3.39  0.77 0.208  0.18  0.15  0.09  0.06  0.00  0.00  0.00  0.00  0.00
 2019 233    65    64  24.2 0.250  0.25 1.378  0.00 1.353 1.846******     0 24.70  3.57  0.78 0.211  0.18  0.15  0.09  0.06  0.00  0.00  0.00  0.00  0.00
 2019 234    66    65  24.4 0.255  0.26 1.432  0.00 1.378 1.876******     0 25.66  3.90  0.79 0.219  0.19  0.15  0.09  0.07  0.00  0.00  0.00  0.00  0.00
 2019 235    67    66  23.8 0.260  0.26 1.478  0.00 1.432 1.909******     0 26.64  4.15  0.80 0.225  0.19  0.16  0.10  0.07  0.00  0.00  0.00  0.00  0.00
 2019 236    68    67  23.1 0.264  0.26 1.503  0.00 1.478 1.940******     0 27.67  4.30  0.80 0.228  0.19  0.16  0.10  0.07  0.00  0.00  0.00  0.00  0.00
 2019 237    69    68  24.0 0.269  0.27 1.548  0.00 1.501 1.970******     0 28.71  4.53  0.81 0.234  0.20  0.16  0.10  0.07  0.00  0.00  0.00  0.00  0.00
 2019 238    70    69  23.8 0.273  0.27 1.596  0.00 1.548 1.999******     0 29.78  4.76  0.82 0.241  0.20  0.17  0.10  0.08  0.00  0.00  0.00  0.00  0.00
 2019 239    71    70  24.5 0.278  0.28 1.608  0.00 1.596 2.025******     0 30.88  4.84  0.83 0.241  0.21  0.17  0.10  0.08  0.00  0.00  0.00  0.00  0.00
 2019 240    72    71  24.4 0.282  0.28 1.676  0.00 1.608 2.055******     0 31.98  5.14  0.83 0.251  0.21  0.18  0.11  0.08  0.00  0.00  0.00  0.00  0.00
 2019 241    73    72  24.5 0.287  0.29 1.719  0.00 1.676 2.086******     0 33.18  5.32  0.84 0.257  0.22  0.18  0.11  0.09  0.00  0.00  0.00  0.00  0.00
 2019 242    74    73  25.1 0.291  0.29 1.786  0.00 1.714 2.118******     0 34.43  5.56  0.85 0.266  0.23  0.19  0.12  0.09  0.00  0.00  0.00  0.00  0.00
 2019 243    75    74  25.8 0.296  0.30 1.821  0.00 1.786 2.152******     0 35.77  5.70  0.86 0.269  0.23  0.19  0.12  0.09  0.00  0.00  0.00  0.00  0.00
 2019 244    76    75  24.4 0.300  0.30 1.879  0.00 1.821 2.182******     0 37.13  5.90  0.87 0.277  0.24  0.19  0.12  0.10  0.00  0.00  0.00  0.00  0.00
 2019 245    77    76  25.0 0.305  0.30 1.924  0.00 1.879 2.209******     0 38.56  6.06  0.88 0.283  0.24  0.20  0.13  0.10  0.00  0.00  0.00  0.00  0.00
 2019 246    78    77  25.5 0.309  0.31 1.971  0.00 1.924 2.242******     0 40.06  6.22  0.89 0.288  0.25  0.20  0.13  0.10  0.00  0.00  0.00  0.00  0.00
 2019 247    79    78  24.7 0.314  0.31 2.031  0.00 1.971 2.273******     0 41.55  6.40  0.89 0.296  0.25  0.21  0.13  0.11  0.00  0.00  0.00  0.00  0.00
 2019 248    80    79  25.2 0.318  0.32 2.079  0.00 2.031 2.305******     0 43.08  6.55  0.90 0.302  0.26  0.21  0.13  0.11  0.00  0.00  0.00  0.00  0.00
 2019 249    81    80  25.3 0.323  0.32 2.150  0.00 2.074 2.333******     0 44.67  6.74  0.91 0.312  0.26  0.22  0.14  0.12  0.00  0.00  0.00  0.00  0.00
 2019 250    82    81  25.3 0.327  0.33 2.207  0.00 2.150 2.361******     0 46.33  6.89  0.92 0.319  0.27  0.22  0.14  0.12  0.00  0.00  0.00  0.00  0.00
 2019 251    83    82  23.6 0.332  0.33 2.260  0.00 2.207 2.390******     0 47.96  7.03  0.93 0.326  0.28  0.23  0.15  0.12  0.00  0.00  0.00  0.00  0.00
 2019 252    84    83  24.6 0.336  0.34 2.318  0.00 2.260 2.421******     0 49.64  7.18  0.94 0.334  0.28  0.23  0.15  0.13  0.00  0.00  0.00  0.00  0.00
 2019 253    85    84  24.6 0.341  0.34 2.360  0.00 2.318 2.452******     0 51.36  7.29  0.95 0.339  0.29  0.24  0.15  0.13  0.00  0.00  0.00  0.00  0.00
 2019 254    86    85  24.0 0.346  0.35 2.429  0.00 2.360 2.481******     0 53.07  7.44  0.95 0.349  0.30  0.24  0.16  0.14  0.00  0.00  0.00  0.00  0.00
 2019 255    87    86  25.1 0.350  0.35 2.487  0.00 2.423 2.508******     0 54.84  7.57  0.96 0.357  0.30  0.25  0.16  0.14  0.00  0.00  0.00  0.00  0.00
 2019 256    88    87  24.7 0.355  0.35 2.540  0.00 2.487 2.535******     0 56.69  7.70  0.97 0.365  0.31  0.26  0.17  0.14  0.00  0.00  0.00  0.00  0.00
 2019 257    89    88  24.8 0.359  0.36 2.588  0.00 2.540 2.562******     0 58.58  7.82  0.98 0.373  0.32  0.26  0.17  0.15  0.00  0.00  0.00  0.00  0.00
 2019 258    90    89  24.4 0.364  0.36 2.644  0.00 2.588 2.592******     0 60.48  7.94  0.99 0.381  0.32  0.27  0.18  0.15  0.00  0.00  0.00  0.00  0.00
 2019 259    91    90  25.3 0.368  0.37 2.678  0.00 2.644 2.625******     0 62.48  8.03  1.00 0.385  0.33  0.27  0.18  0.16  0.00  0.00  0.00  0.00  0.00
 2019 260    92    91  25.3 0.373  0.37 2.727  0.00 2.675 2.653******     0 64.50  8.14  1.01 0.392  0.33  0.27  0.18  0.16  0.00  0.00  0.00  0.00  0.00
 2019 261    93    92  24.1 0.377  0.38 2.773  0.00 2.727 2.678******     0 66.53  8.24  1.01 0.399  0.34  0.28  0.19  0.16  0.00  0.00  0.00  0.00  0.00
 2019 262    94    93  25.0 0.382  0.38 2.815  0.00 2.773 2.705******     0 68.62  8.34  1.02 0.406  0.35  0.28  0.19  0.17  0.00  0.00  0.00  0.00  0.00
 2019 263    95    94  25.1 0.386  0.39 2.862  0.00 2.815 2.733******     0 70.79  8.45  1.03 0.413  0.35  0.29  0.19  0.17  0.00  0.00  0.00  0.00  0.00
 2019 264    96    95  25.6 0.391  0.39 2.908  0.00 2.856 2.762******     0 73.02  8.54  1.04 0.420  0.36  0.29  0.20  0.17  0.00  0.00  0.00  0.00  0.00
 2019 265    97    96  25.7 0.395  0.40 2.950  0.00 2.908 2.790******     0 75.28  8.64  1.05 0.427  0.36  0.30  0.20  0.18  0.00  0.00  0.00  0.00  0.00
 2019 266    98    97  25.5 0.400  0.40 2.990  0.00 2.950 2.818******     0 77.65  8.73  1.06 0.433  0.37  0.30  0.20  0.18  0.00  0.00  0.00  0.00  0.00
 2019 267    99    98  26.2 0.404  0.40 3.028  0.00 2.990 2.848******     0 80.09  8.83  1.07 0.438  0.37  0.31  0.21  0.18  0.00  0.00  0.00  0.00  0.00
 2019 268   100    99  26.2 0.408  0.41 3.064  0.00 3.028 2.878******     0 82.62  8.92  1.08 0.444  0.38  0.31  0.21  0.19  0.00  0.00  0.00  0.00  0.00
 2019 269   101   100  24.5 0.413  0.41 3.111  0.00 3.064 2.909******     0 85.11  9.01  1.08 0.451  0.38  0.32  0.21  0.19  0.00  0.00  0.00  0.00  0.00
 2019 270   102   101  24.6 0.417  0.42 3.148  0.00 3.106 2.935******     0 87.58  9.09  1.09 0.457  0.39  0.32  0.21  0.19  0.00  0.00  0.00  0.00  0.00
 2019 271   103   102  24.8 0.422  0.42 3.177  0.00 3.148 2.958******     0 90.08  9.18  1.10 0.462  0.39  0.32  0.22  0.20  0.00  0.00  0.00  0.00  0.00
 2019 272   104   103  25.0 0.426  0.43 3.211  0.00 3.177 2.985******     0 92.57  9.26  1.11 0.467  0.40  0.33  0.22  0.20  0.00  0.00  0.00  0.00  0.00
 2019 273   105   104  24.6 0.431  0.43 3.252  0.00 3.211 3.016******     0 95.02  9.34  1.12 0.473  0.40  0.33  0.22  0.20  0.00  0.00  0.00  0.00  0.00
 2019 274   106   105  24.4 0.435  0.44 3.287  0.00 3.248 3.042******     0 97.51  9.42  1.13 0.479  0.41  0.33  0.23  0.21  0.00  0.00  0.00  0.00  0.00
 2019 275   107   106  24.5 0.440  0.44 3.318  0.00 3.287 3.068******     0 100.0  9.49  1.14 0.484  0.41  0.34  0.23  0.21  0.00  0.00  0.00  0.00  0.00
 2019 276   108   107  25.5 0.444  0.44 3.354  0.00 3.318 3.096******     0 102.6  9.57  1.15 0.490  0.42  0.34  0.23  0.21  0.00  0.00  0.00  0.00  0.00
 2019 277   109   108  24.2 0.449  0.45 3.382  0.00 3.349 3.118******     0 105.1  9.64  1.15 0.495  0.42  0.35  0.23  0.21  0.00  0.00  0.00  0.00  0.00
 2019 278   110   109  25.0 0.453  0.45 3.407  0.00 3.382 3.140******     0 107.7  9.71  1.16 0.499  0.42  0.35  0.24  0.22  0.00  0.00  0.00  0.00  0.00
 2019 279   111   110  24.6 0.458  0.46 3.437  0.00 3.407 3.167******     0 110.4  9.79  1.17 0.504  0.43  0.35  0.24  0.22  0.00  0.00  0.00  0.00  0.00
 2019 280   112   111  23.5 0.463  0.46 3.466  0.00 3.437 3.191******     0 113.0  9.86  1.18 0.509  0.43  0.36  0.24  0.22  0.00  0.00  0.00  0.00  0.00
 2019 281   113   112  23.9 0.467  0.47 3.490  0.00 3.463 3.212******     0 115.6  9.92  1.19 0.513  0.44  0.36  0.24  0.22  0.00  0.00  0.00  0.00  0.00
 2019 282   114   113  24.0 0.472  0.47 3.513  0.00 3.490 3.233******     0 118.2  9.99  1.19 0.517  0.44  0.36  0.25  0.23  0.00  0.00  0.00  0.00  0.00
 2019 283   115   114  24.9 0.476  0.48 3.543  0.00 3.513 3.260******     0 120.8 10.06  1.20 0.522  0.44  0.36  0.25  0.23  0.00  0.00  0.00  0.00  0.00
 2019 284   116   115  25.4 0.481  0.48 3.567  0.00 3.540 3.288******     0 123.5 10.13  1.21 0.526  0.45  0.37  0.25  0.23  0.00  0.00  0.00  0.00  0.00
 2019 285   117   116  24.8 0.485  0.49 3.589  0.00 3.567 3.310******     0 126.3 10.19  1.22 0.530  0.45  0.37  0.25  0.23  0.00  0.00  0.00  0.00  0.00
 2019 286   118   117  25.4 0.490  0.49 3.618  0.00 3.589 3.338******     0 129.2 10.26  1.23 0.535  0.45  0.37  0.26  0.24  0.00  0.00  0.00  0.00  0.00
 2019 287   119   118  25.9 0.494  0.49 3.642  0.00 3.615 3.362******     0 132.2 10.34  1.24 0.538  0.46  0.38  0.26  0.24  0.00  0.00  0.00  0.00  0.00
 2019 288   120   119  25.1 0.499  0.50 3.663  0.00 3.642 3.385******     0 135.2 10.41  1.25 0.542  0.46  0.38  0.26  0.24  0.00  0.00  0.00  0.00  0.00
 2019 289   121   120  24.9 0.503  0.50 3.683  0.00 3.663 3.408******     0 138.2 10.48  1.26 0.545  0.46  0.38  0.26  0.24  0.00  0.00  0.00  0.00  0.00
 2019 290   122   121  24.6 0.508  0.51 3.710  0.00 3.683 3.434******     0 141.2 10.55  1.26 0.549  0.47  0.38  0.26  0.24  0.00  0.00  0.00  0.00  0.00
 2019 291   123   122  24.2 0.512  0.51 3.730  0.00 3.707 3.456******     0 144.2 10.61  1.27 0.552  0.47  0.39  0.26  0.25  0.00  0.00  0.00  0.00  0.00
 2019 292   124   123  23.9 0.517  0.52 3.749  0.00 3.730 3.477******     0 147.0 10.68  1.28 0.556  0.47  0.39  0.27  0.25  0.00  0.00  0.00  0.00  0.00
 2019 293   125   124  23.3 0.521  0.52 3.770  0.00 3.749 3.500******     0 149.8 10.74  1.29 0.559  0.48  0.39  0.27  0.25  0.00  0.00  0.00  0.00  0.00
 2019 294   126   125  25.0 0.526  0.53 3.789  0.00 3.769 3.523******     0 152.7 10.80  1.30 0.563  0.48  0.39  0.27  0.25  0.00  0.00  0.00  0.00  0.00
 2019 295   127   126  25.8 0.530  0.53 3.811  0.00 3.789 3.547******     0 155.7 10.87  1.31 0.566  0.48  0.40  0.27  0.25  0.00  0.00  0.00  0.00  0.00
 2019 296   128   127  25.8 0.535  0.53 3.832  0.00 3.808 3.571******     0 158.8 10.93  1.31 0.569  0.48  0.40  0.27  0.26  0.00  0.00  0.00  0.00  0.00
 2019 297   129   128  24.6 0.539  0.54 3.850  0.00 3.832 3.593******     0 161.9 11.00  1.32 0.572  0.49  0.40  0.27  0.26  0.00  0.00  0.00  0.00  0.00
 2019 298   130   129  24.8 0.544  0.54 3.868  0.00 3.850 3.616******     0 165.1 11.07  1.33 0.575  0.49  0.40  0.28  0.26  0.00  0.00  0.00  0.00  0.00
 2019 299   131   130  24.6 0.548  0.55 3.889  0.00 3.868 3.642******     0 168.3 11.14  1.34 0.578  0.49  0.40  0.28  0.26  0.00  0.00  0.00  0.00  0.00
 2019 300   132   131  24.0 0.553  0.55 3.907  0.00 3.888 3.663******     0 171.4 11.20  1.35 0.581  0.49  0.41  0.28  0.26  0.00  0.00  0.00  0.00  0.00
 2019 301   133   132  23.6 0.557  0.56 3.925  0.00 3.907 3.683******     0 174.4 11.26  1.36 0.584  0.50  0.41  0.28  0.26  0.00  0.00  0.00  0.00  0.00
 2019 302   134   133  23.3 0.562  0.56 3.939  0.00 3.923 3.703******     0 177.3 11.32  1.37 0.586  0.50  0.41  0.28  0.27  0.00  0.00  0.00  0.00  0.00
 2019 303   135   134  25.1 0.566  0.57 3.956  0.00 3.939 3.726******     0 180.3 11.38  1.37 0.589  0.50  0.41  0.28  0.27  0.00  0.00  0.00  0.00  0.00
 2019 304   136   135  25.0 0.571  0.57 3.974  0.00 3.956 3.749******     0 183.4 11.44  1.38 0.592  0.50  0.41  0.29  0.27  0.00  0.00  0.00  0.00  0.00
 2019 305   137   136  25.6 0.575  0.58 3.990  0.00 3.972 3.773******     0 186.6 11.51  1.39 0.594  0.51  0.42  0.29  0.27  0.00  0.00  0.00  0.00  0.00
 2019 306   138   137  24.2 0.580  0.58 4.007  0.00 3.990 3.794******     0 189.9 11.57  1.40 0.596  0.51  0.42  0.29  0.27  0.00  0.00  0.00  0.00  0.00
 2019 307   139   138  26.2 0.584  0.58 4.025  0.00 4.007 3.824******     0 193.4 11.64  1.41 0.599  0.51  0.42  0.29  0.27  0.00  0.00  0.00  0.00  0.00
 2019 308   140   139  26.2 0.589  0.59 4.041  0.00 4.024 3.849******     0 197.0 11.72  1.42 0.601  0.51  0.42  0.29  0.27  0.00  0.00  0.00  0.00  0.00
 2019 309   141   140  26.2 0.593  0.59 4.057  0.00 4.041 3.873******     0 200.7 11.79  1.43 0.602  0.51  0.42  0.29  0.27  0.00  0.00  0.00  0.00  0.00
 2019 310   142   141  26.4 0.597  0.60 4.073  0.00 4.057 3.898******     0 204.5 11.87  1.44 0.604  0.51  0.42  0.29  0.28  0.00  0.00  0.00  0.00  0.00
 2019 311   143   142  26.2 0.600  0.60 4.088  0.00 4.072 3.919******     0 208.4 11.95  1.45 0.605  0.51  0.42  0.29  0.28  0.00  0.00  0.00  0.00  0.00
 2019 312   144   143  25.9 0.603  0.60 4.106  0.00 4.088 3.937******     0 212.3 12.03  1.46 0.606  0.52  0.42  0.29  0.28  0.00  0.00  0.00  0.00  0.00
 2019 313   145   144  25.0 0.606  0.61 4.117  0.00 4.103 3.950******     0 216.3 12.11  1.47 0.607  0.52  0.42  0.29  0.28  0.00  0.00  0.00  0.00  0.00
 2019 314   146   145  26.4 0.609  0.61 4.130  0.00 4.117 3.963******     0 220.2 12.19  1.48 0.608  0.52  0.43  0.29  0.28  0.00  0.00  0.00  0.00  0.00
 2019 315   147   146  26.1 0.611  0.61 4.142  0.00 4.129 3.976******     0 224.1 12.27  1.49 0.609  0.52  0.43  0.29  0.28  0.00  0.00  0.00  0.00  0.00
 2019 316   148   147  25.8 0.613  0.61 4.153  0.00 4.142 3.988******     0 228.0 12.35  1.50 0.610  0.52  0.43  0.30  0.28  0.00  0.00  0.00  0.00  0.00
 2019 317   149   148  25.9 0.617  0.62 4.164  0.00 4.153 4.001******     0 231.8 12.43  1.51 0.611  0.52  0.43  0.30  0.28  0.00  0.00  0.00  0.00  0.00
 2019 318   150   149  26.5 0.621  0.62 4.173  0.00 4.162 4.016******     0 235.5 12.51  1.52 0.612  0.52  0.43  0.30  0.28  0.00  0.00  0.00  0.00  0.00
 2019 319   151   150  26.1 0.626  0.63 4.182  0.00 4.173 4.031******     0 239.3 12.58  1.53 0.612  0.52  0.43  0.30  0.28  0.00  0.00  0.00  0.00  0.00
 2019 320   152   151  26.4 0.630  0.63 4.192  0.00 4.182 4.046******     0 243.1 12.66  1.54 0.613  0.52  0.43  0.30  0.28  0.00  0.00  0.00  0.00  0.00
 2019 321   153   152  26.1 0.634  0.63 4.200  0.00 4.190 4.060******     0 247.1 12.74  1.55 0.614  0.52  0.43  0.30  0.28  0.00  0.00  0.00  0.00  0.00
 2019 322   154   153  26.0 0.637  0.64 4.211  0.00 4.200 4.076******     0 251.1 12.83  1.56 0.614  0.52  0.43  0.30  0.28  0.00  0.00  0.00  0.00  0.00
 2019 323   155   154  26.4 0.640  0.64 4.222  0.00 4.211 4.090******     0 255.0 12.91  1.57 0.615  0.52  0.43  0.30  0.28  0.00  0.00  0.00  0.00  0.00
 2019 324   156   155  26.8 0.642  0.64 4.235  0.00 4.222 4.103******     0 259.0 12.99  1.58 0.613  0.52  0.43  0.30  0.28  0.00  0.00  0.00  0.00  0.00
 2019 325   157   156  26.4 0.644  0.64 4.243  0.00 4.232 4.112******     0 263.0 13.07  1.59 0.610  0.52  0.43  0.30  0.29  0.00  0.00  0.00  0.00  0.00
 2019 326   158   157  26.0 0.646  0.65 4.254  0.00 4.239 4.122****** 0.918 267.0 13.15  1.60 0.633  0.55  0.45  0.31  0.30  0.00  0.00  0.00  0.00  0.00
 2019 327   159   158  26.9 0.648  0.65 4.261  0.02 4.235 4.131****** 4.073 271.0 13.21  1.61 0.661  0.58  0.48  0.33  0.32  0.00  0.00  0.00  0.00  0.00
 2019 328   160   159  26.5 0.650  0.65 4.269  0.04 4.225 4.138****** 8.198 275.0 13.26  1.62 0.685  0.60  0.50  0.35  0.33  0.00  0.00  0.00  0.00  0.00
 2019 329   161   160  25.5 0.651  0.65 4.277  0.07 4.203 4.145****** 15.09 279.0 13.30  1.63 0.709  0.63  0.52  0.36  0.34  0.00  0.00  0.00  0.00  0.00
 2019 330   162   161  26.1 0.653  0.65 4.283  0.10 4.174 4.150****** 23.25 283.0 13.33  1.64 0.734  0.66  0.54  0.38  0.36  0.00  0.00  0.00  0.00  0.00
 2019 331   163   162  24.9 0.655  0.65 4.288  0.14 4.147 4.154****** 30.69 287.1 13.36  1.65 0.758  0.69  0.56  0.39  0.38  0.00  0.00  0.00  0.00  0.00
 2019 332   164   163  23.9 0.657  0.66 4.293  0.17 4.114 4.158****** 39.55 291.1 13.38  1.66 0.784  0.71  0.59  0.41  0.39  0.00  0.00  0.00  0.00  0.00
 2019 333   165   164  24.3 0.658  0.66 4.298  0.21 4.083 4.162****** 47.66 295.1 13.41  1.67 0.809  0.74  0.61  0.43  0.41  0.00  0.00  0.00  0.00  0.00
 2019 334   166   165  24.6 0.660  0.66 4.303  0.25 4.050 4.165****** 56.31 299.1 13.44  1.68 0.836  0.77  0.64  0.44  0.43  0.00  0.00  0.00  0.00  0.00
 2019 335   167   166  23.8 0.661  0.66 4.307  0.29 4.012 4.167****** 66.07 303.1 13.45  1.69 0.864  0.80  0.66  0.46  0.44  0.00  0.00  0.00  0.00  0.00
 2019 336   168   167  24.1 0.663  0.66 4.310  0.33 3.975 4.168****** 75.06 307.0 13.48  1.70 0.892  0.84  0.69  0.48  0.46  0.00  0.00  0.00  0.00  0.00
 2019 337   169   168  24.5 0.664  0.66 4.315  0.37 3.941 4.172****** 83.60 310.9 13.50  1.71 0.923  0.87  0.72  0.50  0.48  0.00  0.00  0.00  0.00  0.00
 2019 338   170   169  24.2 0.665  0.67 4.320  0.41 3.906 4.175****** 92.80 314.8 13.52  1.72 0.954  0.90  0.75  0.52  0.50  0.00  0.00  0.00  0.00  0.00
 2019 339   171   170  24.8 0.667  0.67 4.322  0.44 3.879 4.176****** 99.93 318.6 13.55  1.73 0.987  0.94  0.79  0.55  0.53  0.00  0.00  0.00  0.00  0.00
 2019 340   172   171  23.7 0.668  0.67 4.324  0.47 3.856 4.177****** 105.8 322.4 13.59  1.74 1.023  0.98  0.82  0.57  0.55  0.00  0.00  0.00  0.00  0.00
 2019 341   173   172  23.2 0.669  0.67 4.327  0.49 3.834 4.179****** 111.4 326.3 13.64  1.75 1.060  1.02  0.86  0.60  0.57  0.00  0.00  0.00  0.00  0.00
 2019 342   174   173  24.1 0.670  0.67 4.329  0.51 3.812 4.180****** 116.9 330.2 13.69  1.76 1.099  1.06  0.89  0.63  0.60  0.00  0.00  0.00  0.00  0.00
 2019 343   175   174  23.2 0.671  0.67 4.334  0.54 3.793 4.182****** 121.8 334.2 13.74  1.77 1.142  1.10  0.94  0.66  0.63  0.00  0.00  0.00  0.00  0.00
 2019 344   176   175  22.8 0.672  0.67 4.336  0.56 3.774 4.183****** 126.9 338.1 13.79  1.78 1.187  1.15  0.98  0.69  0.66  0.00  0.00  0.00  0.00  0.00
 2019 345   177   176  23.9 0.673  0.67 4.338  0.58 3.752 4.184****** 132.4 342.0 13.84  1.79 1.236  1.20  1.03  0.72  0.70  0.00  0.00  0.00  0.00  0.00
 2019 346   178   177  23.5 0.674  0.67 4.340  0.61 3.733 4.185****** 137.4 345.8 13.89  1.80 1.290  1.25  1.08  0.76  0.73  0.00  0.00  0.00  0.00  0.00
 2019 347   179   178  23.2 0.675  0.67 4.342  0.63 3.714 4.186****** 142.2 349.7 13.94  1.81 1.348  1.31  1.13  0.80  0.77  0.00  0.00  0.00  0.00  0.00
 2019 348   180   179  23.2 0.676  0.68 4.344  0.65 3.696 4.187****** 146.6 353.5 14.00  1.82 1.413  1.37  1.19  0.85  0.82  0.00  0.00  0.00  0.00  0.00
 2019 349   181   180  23.4 0.677  0.68 4.347  0.67 3.674 4.188****** 152.1 357.3 14.05  1.83 1.484  1.44  1.26  0.90  0.87  0.00  0.00  0.00  0.00  0.00
 2019 350   182   181  23.6 0.677  0.68 4.347  0.70 3.650 4.188****** 158.0 361.1 14.09  1.84 1.564  1.52  1.34  0.96  0.92  0.00  0.00  0.00  0.00  0.00
 2019 351   183   182  24.4 0.678  0.68 4.347  0.72 3.622 4.188****** 164.4 365.0 14.14  1.85 1.654  1.61  1.42  1.02  0.98  0.00  0.00  0.00  0.00  0.00
 2019 352   184   183  25.1 0.679  0.68 4.347  0.76 3.588 4.188****** 172.2 368.9 14.17  1.86 1.757  1.71  1.52  1.10  1.06  0.00  0.00  0.00  0.00  0.00
 2019 353   185   184  25.0 0.679  0.68 4.349  0.79 3.553 4.189****** 180.1 372.8 14.21  1.87 1.840  1.79  1.60  1.16  1.12  0.00  0.00  0.00  0.00  0.00
 2019 354   186   185  23.7 0.680  0.68 4.351  0.82 3.527 4.189****** 186.6 376.8 14.25  1.88 1.932  1.88  1.69  1.23  1.18  0.00  0.00  0.00  0.00  0.00
 2019 355   187   186  22.9 0.680  0.68 4.353  0.85 3.503 4.190****** 192.6 380.7 14.30  1.89 2.036  1.98  1.79  1.31  1.26  0.00  0.00  0.00  0.00  0.00
 2019 356   188   187  23.3 0.681  0.68 4.355  0.88 3.477 4.191****** 198.9 384.6 14.35  1.90 2.155  2.09  1.90  1.39  1.34  0.00  0.00  0.00  0.00  0.00
 2019 357   189   188  22.9 0.681  0.68 4.357  0.90 3.452 4.191****** 205.1 388.5 14.40  1.91 2.292  2.22  2.02  1.49  1.44  0.00  0.00  0.00  0.00  0.00
 2019 358   190   189  23.4 0.682  0.68 4.359  0.93 3.424 4.192****** 211.9 392.4 14.44  1.92 2.452  2.38  2.17  1.61  1.56  0.00  0.00  0.00  0.00  0.00
 2019 359   191   190  23.6 0.682  0.68 4.361  0.97 3.392 4.192****** 219.6 396.3 14.48  1.93 2.644  2.56  2.35  1.75  1.69  0.00  0.00  0.00  0.00  0.00
 2019 360   192   191  23.5 0.683  0.68 4.361  1.01 3.354 4.192****** 228.6 400.2 14.50  1.94 2.876  2.79  2.56  1.92  1.85  0.00  0.00  0.00  0.00  0.00
 2019 361   193   192  23.4 0.683  0.68 4.361  1.04 3.319 4.192****** 236.7 404.1 14.54  1.95 3.168  3.07  2.82  2.13  2.06  0.00  0.00  0.00  0.00  0.00
 2019 362   194   193  23.1 0.683  0.68 4.361  1.08 3.283 4.192****** 244.8 407.9 14.58  1.96 3.547  3.43  3.16  2.40  2.32  0.00  0.00  0.00  0.00  0.00
 2019 363   195   194  22.6 0.684  0.68 4.361  1.11 3.248 4.192****** 252.8 411.8 14.61  1.97 4.065  3.93  3.62  2.77  2.68  0.00  0.00  0.00  0.00  0.00
 2019 364   196   195  22.4 0.684  0.68 4.361  1.15 3.214 4.192****** 260.5 415.6 14.65  1.98 4.825  4.67  4.29  3.30  3.20  0.00  0.00  0.00  0.00  0.00
 2019 365   197   196  23.0 0.684  0.68 4.361  1.18 3.182 4.192****** 267.7 419.4 14.70  1.99 6.077  5.88  5.39  4.17  4.05  0.00  0.00  0.00  0.00  0.00
 2020   1   198   197  22.8 0.684  0.68 4.361  1.22 3.146 4.192****** 276.0 423.1 14.73  2.00 7.467  7.21  6.62  5.14  4.99  0.00  0.00  0.00  0.00  0.00
 2020   2   199   198  21.2 0.684  0.68 4.361  1.25 3.114 4.192****** 283.3 426.8 14.77  2.0010.211  9.86  9.05  7.04  6.84  0.00  0.00  0.00  0.00  0.00
 2020   3   200   199  21.7 0.684  0.68 4.361  1.28 3.079 4.192****** 291.1 430.3 14.81  2.0017.768 17.14 15.72 12.22 11.88  0.00  0.00  0.00  0.00  0.00
 2020   4   201   200  22.4 0.684  0.68 4.361  1.32 3.040 4.192****** 299.9 433.9 14.83  2.00******198.79182.13141.55137.57  0.00  0.00  0.00  0.00  0.00
 2020   5   202   201  23.4 0.684  0.68 4.361  1.37 2.991 4.192****** 311.1 437.4 14.83  2.00 0.463  0.45  0.41  0.32  0.31  0.00  0.00  0.00  0.00  0.00
 2020   6   203   202  25.2 0.684  0.68 4.361  1.42 2.940 4.192****** 322.7 440.9 14.83  2.00 0.463  0.45  0.41  0.32  0.31  0.00  0.00  0.00  0.00  0.00
 2020   7   204   203  24.8 0.684  0.68 4.361  1.47 2.888 4.192****** 334.5 444.5 14.83  2.00 0.463  0.44  0.41  0.32  0.31  0.00  0.00  0.00  0.00  0.00
 2020   8   205   204  25.2 0.684  0.68 4.361  1.53 2.832 4.192****** 347.3 448.1 14.83  2.00 0.462  0.44  0.41  0.31  0.31  0.00  0.00  0.00  0.00  0.00
 2020   9   206   205  25.2 0.684  0.68 4.361  1.59 2.773 4.192****** 360.6 451.9 14.82  2.00 0.462  0.44  0.40  0.31  0.31  0.00  0.00  0.00  0.00  0.00
 2020  10   207   206  25.4 0.684  0.68 4.361  1.65 2.711 4.192****** 374.8 455.6 14.81  2.00 0.462  0.44  0.40  0.31  0.30  0.00  0.00  0.00  0.00  0.00
 2020  11   208   207  25.0 0.684  0.68 4.361  1.71 2.649 4.192****** 388.8 459.4 14.80  2.00 0.461  0.44  0.40  0.31  0.30  0.00  0.00  0.00  0.00  0.00
 2020  12   209   208  25.0 0.684  0.68 4.361  1.78 2.583 4.192****** 403.9 463.1 14.78  2.00 0.461  0.44  0.40  0.31  0.30  0.00  0.00  0.00  0.00  0.00
 2020  13   210   209  26.2 0.684  0.68 4.361  1.85 2.512 4.192****** 419.9 466.9 14.75  2.00 0.461  0.44  0.40  0.31  0.30  0.00  0.00  0.00  0.00  0.00
 2020  14   211   210  26.0 0.684  0.68 4.361  1.92 2.441 4.192****** 436.1 470.6 14.73  2.00 0.460  0.44  0.40  0.31  0.30  0.00  0.00  0.00  0.00  0.00
 2020  15   212   211  26.4 0.684  0.68 4.361  2.00 2.362 4.192****** 454.1 474.3 14.68  2.00 0.460  0.44  0.40  0.31  0.30  0.00  0.00  0.00  0.00  0.00
 2020  16   213   212  24.5 0.684  0.68 4.361  2.07 2.294 4.192****** 469.3 478.0 14.66  2.00 0.460  0.44  0.40  0.31  0.30  0.00  0.00  0.00  0.00  0.00
 2020  17   214   213  24.5 0.684  0.68 4.361  2.14 2.225 4.192****** 485.2 481.7 14.64  2.00 0.459  0.44  0.40  0.31  0.30  0.00  0.00  0.00  0.00  0.00
 2020  18   215   214  24.0 0.684  0.68 4.361  2.22 2.144 4.192****** 503.5 485.4 14.59  2.00 0.459  0.44  0.40  0.31  0.30  0.00  0.00  0.00  0.00  0.00
 2020  19   216   215  24.4 0.684  0.68 4.361  2.29 2.072 4.192****** 519.7 489.1 14.56  2.00 0.458  0.44  0.40  0.31  0.30  0.00  0.00  0.00  0.00  0.00
 2020  20   217   216  25.2 0.684  0.68 4.361  2.36 1.997 4.192****** 536.9 492.8 14.53  2.00 0.458  0.44  0.39  0.30  0.30  0.00  0.00  0.00  0.00  0.00
 2020  21   218   217  25.6 0.684  0.68 4.361  2.44 1.922 4.192****** 553.8 496.5 14.49  2.00 0.457  0.43  0.39  0.30  0.30  0.00  0.00  0.00  0.00  0.00
 2020  22   219   218  26.7 0.684  0.68 4.361  2.51 1.851 4.192****** 570.1 500.1 14.46  2.00 0.457  0.43  0.39  0.30  0.29  0.00  0.00  0.00  0.00  0.00
 2020  23   220   219  25.4 0.684  0.68 4.361  2.58 1.780 4.192****** 586.2 503.8 14.43  2.00 0.456  0.43  0.39  0.30  0.29  0.00  0.00  0.00  0.00  0.00
 2020  24   221   220  23.8 0.684  0.68 4.361  2.64 1.721 4.192****** 599.5 507.4 14.42  2.00 0.456  0.43  0.39  0.30  0.29  0.00  0.00  0.00  0.00  0.00
 2020  25   222   221  23.2 0.684  0.68 4.361  2.69 1.667 4.192****** 611.9 511.0 14.42  2.00 0.455  0.43  0.39  0.30  0.29  0.00  0.00  0.00  0.00  0.00
 2020  26   223   222  23.6 0.684  0.68 4.361  2.75 1.608 4.192****** 625.2 514.7 14.42  2.00 0.455  0.43  0.39  0.30  0.29  0.00  0.00  0.00  0.00  0.00
 2020  27   224   223  24.0 0.684  0.68 4.361  2.80 1.558 4.192****** 636.6 518.3 14.42  2.00 0.454  0.43  0.39  0.30  0.29  0.00  0.00  0.00  0.00  0.00
 2020  28   225   224  24.5 0.684  0.68 4.361  2.86 1.503 4.192****** 649.0 521.9 14.42  2.00 0.453  0.43  0.39  0.30  0.29  0.00  0.00  0.00  0.00  0.00
 2020  29   226   225  25.3 0.684  0.68 4.361  2.92 1.443 4.192****** 662.7 525.5 14.41  2.00 0.453  0.43  0.39  0.30  0.29  0.00  0.00  0.00  0.00  0.00
 2020  30   227   226  25.3 0.684  0.68 4.361  2.97 1.387 4.192****** 675.4 529.1 14.40  2.00 0.452  0.43  0.38  0.30  0.29  0.00  0.00  0.00  0.00  0.00
 2020  31   228   227  25.2 0.684  0.68 4.361  3.02 1.342 4.192****** 685.6 532.6 14.42  2.00 0.452  0.43  0.38  0.29  0.29  0.00  0.00  0.00  0.00  0.00
 2020  32   229   228  25.0 0.684  0.68 4.361  3.07 1.292 4.192****** 697.0 536.2 14.42  2.00 0.451  0.43  0.38  0.29  0.29  0.00  0.00  0.00  0.00  0.00
 2020  33   230   229  25.6 0.684  0.68 4.361  3.12 1.245 4.192****** 707.6 539.8 14.44  2.00 0.451  0.42  0.38  0.29  0.29  0.00  0.00  0.00  0.00  0.00
 2020  34   231   230  25.1 0.684  0.68 4.361  3.16 1.197 4.192****** 718.4 543.3 14.45  2.00 0.450  0.42  0.38  0.29  0.28  0.00  0.00  0.00  0.00  0.00
 2020  35   232   231  24.5 0.684  0.68 4.361  3.21 1.150 4.192****** 729.2 546.9 14.46  2.00 0.449  0.42  0.38  0.29  0.28  0.00  0.00  0.00  0.00  0.00
 2020  36   233   232  25.0 0.684  0.68 4.361  3.26 1.106 4.192****** 739.2 550.4 14.47  2.00 0.449  0.42  0.38  0.29  0.28  0.00  0.00  0.00  0.00  0.00
 2020  37   234   233  25.2 0.684  0.68 4.361  3.30 1.059 4.192****** 749.9 553.9 14.48  2.00 0.448  0.42  0.38  0.29  0.28  0.00  0.00  0.00  0.00  0.00
 2020  38   235   234  26.7 0.684  0.68 4.361  3.35 1.014 4.192****** 760.1 557.5 14.50  2.00 0.447  0.42  0.38  0.29  0.28  0.00  0.00  0.00  0.00  0.00
 2020  39   236   235  27.8 0.684  0.68 4.361  3.40 0.963 4.192****** 771.7 561.0 14.50  2.00 0.447  0.42  0.38  0.29  0.28  0.00  0.00  0.00  0.00  0.00
 2020  40   237   236  27.0 0.684  0.68 4.361  3.44 0.919 4.192****** 781.6 564.5 14.52  2.00 0.446  0.42  0.37  0.29  0.28  0.00  0.00  0.00  0.00  0.00
 2020  41   238   237  27.3 0.684  0.68 4.361  3.48 0.880 4.192****** 790.5 568.0 14.54  2.00 0.445  0.42  0.37  0.29  0.28  0.00  0.00  0.00  0.00  0.00
 2020  42   239   238  27.4 0.684  0.68 4.361  3.53 0.834 4.192****** 800.9 571.4 14.55  2.00 0.445  0.42  0.37  0.28  0.28  0.00  0.00  0.00  0.00  0.00
 2020  43   240   239  26.0 0.684  0.68 4.361  3.56 0.803 4.192****** 807.9 574.9 14.59  2.00 0.444  0.42  0.37  0.28  0.28  0.00  0.00  0.00  0.00  0.00
 2020  44   241   240  26.4 0.684  0.68 4.361  3.60 0.763 4.192****** 817.1 578.4 14.61  2.00 0.443  0.41  0.37  0.28  0.28  0.00  0.00  0.00  0.00  0.00
 2020  45   242   241  26.7 0.684  0.68 4.361  3.63 0.728 4.192****** 824.9 581.8 14.65  2.00 0.443  0.41  0.37  0.28  0.28  0.00  0.00  0.00  0.00  0.00
 2020  46   243   242  27.0 0.684  0.68 4.361  3.67 0.692 4.192****** 833.2 585.3 14.68  2.00 0.442  0.41  0.37  0.28  0.28  0.00  0.00  0.00  0.00  0.00
 2020  47   244   243  27.3 0.684  0.68 4.361  3.70 0.659 4.192****** 840.6 588.7 14.71  2.00 0.441  0.41  0.37  0.28  0.27  0.00  0.00  0.00  0.00  0.00
 2020  48   245   244  27.8 0.684  0.68 4.361  3.74 0.626 4.192****** 848.2 592.1 14.75  2.00 0.440  0.41  0.37  0.28  0.27  0.00  0.00  0.00  0.00  0.00
 2020  49   246   245  27.2 0.684  0.68 4.361  3.77 0.594 4.192****** 855.6 595.6 14.78  2.00 0.440  0.41  0.37  0.28  0.27  0.00  0.00  0.00  0.00  0.00
 2020  50   247   246  26.6 0.684  0.68 4.361  3.80 0.563 4.192****** 862.6 599.0 14.82  2.00 0.439  0.41  0.36  0.28  0.27  0.00  0.00  0.00  0.00  0.00
 2020  51   248   247  28.2 0.684  0.68 4.361  3.83 0.527 4.192****** 870.8 602.4 14.85  2.00 0.438  0.41  0.36  0.28  0.27  0.00  0.00  0.00  0.00  0.00
 2020  52   249   248  29.5 0.684  0.68 4.361  3.87 0.493 4.192****** 878.3 605.7 14.89  2.00 0.437  0.41  0.36  0.28  0.27  0.00  0.00  0.00  0.00  0.00
 2020  53   250   249  29.7 0.684  0.68 4.361  3.90 0.462 4.192****** 885.5 609.1 14.93  2.00 0.437  0.41  0.36  0.28  0.27  0.00  0.00  0.00  0.00  0.00
 2020  54   251   250  29.6 0.684  0.68 4.361  3.93 0.429 4.192****** 892.9 612.5 14.96  2.00 0.436  0.40  0.36  0.27  0.27  0.00  0.00  0.00  0.00  0.00
 2020  55   252   251  29.0 0.684  0.68 4.361  3.96 0.399 4.192****** 899.8 615.8 15.00  2.00 0.435  0.40  0.36  0.27  0.27  0.00  0.00  0.00  0.00  0.00
 2020  56   253   252  27.7 0.684  0.68 4.361  3.99 0.369 4.192****** 906.5 619.0 15.04  2.00 0.434  0.40  0.36  0.27  0.27  0.00  0.00  0.00  0.00  0.00
 2020  57   254   253  27.0 0.684  0.68 4.361  4.02 0.345 4.192****** 912.1 622.4 15.09  2.00 0.434  0.40  0.36  0.27  0.27  0.00  0.00  0.00  0.00  0.00
 2020  58   255   254  28.8 0.684  0.68 4.361  4.04 0.319 4.192****** 917.8 625.7 15.14  2.00 0.433  0.40  0.36  0.27  0.27  0.00  0.00  0.00  0.00  0.00
 2020  59   256   255  28.8 0.684  0.68 4.361  4.07 0.295 4.192****** 923.4 629.0 15.20  2.00 0.432  0.40  0.36  0.27  0.26  0.00  0.00  0.00  0.00  0.00
 2020  60   257   256  30.1 0.684  0.68 4.361  4.09 0.270 4.192****** 928.9 632.4 15.25  2.00 0.431  0.40  0.35  0.27  0.26  0.00  0.00  0.00  0.00  0.00
 2020  61   258   257  29.7 0.684  0.68 4.361  4.11 0.248 4.192****** 934.1 635.7 15.30  2.00 0.430  0.40  0.35  0.27  0.26  0.00  0.00  0.00  0.00  0.00
 2020  62   259   258  29.0 0.684  0.68 4.361  4.13 0.227 4.192****** 938.8 639.0 15.36  2.00 0.429  0.40  0.35  0.27  0.26  0.00  0.00  0.00  0.00  0.00
 2020  63   260   259  29.5 0.684  0.68 4.361  4.15 0.211 4.192****** 942.5 642.3 15.43  2.00 0.429  0.40  0.35  0.27  0.26  0.00  0.00  0.00  0.00  0.00
 2020  64   261   260  30.2 0.684  0.68 4.361  4.17 0.195 4.192****** 946.1 645.5 15.50  2.00 0.428  0.40  0.35  0.27  0.26  0.00  0.00  0.00  0.00  0.00
 2020  65   262   261  30.2 0.684  0.68 4.361  4.18 0.182 4.192****** 948.9 648.8 15.58  2.00 0.427  0.39  0.35  0.26  0.26  0.00  0.00  0.00  0.00  0.00
 2020  66   263   262  28.9 0.684  0.68 4.361  4.19 0.170 4.192****** 951.8 652.1 15.65  2.00 0.426  0.39  0.35  0.26  0.26  0.00  0.00  0.00  0.00  0.00
 2020  67   264   263  30.6 0.684  0.68 4.361  4.21 0.154 4.192****** 955.4 655.3 15.72  2.00 0.425  0.39  0.35  0.26  0.26  0.00  0.00  0.00  0.00  0.00
 2020  68   265   264  30.2 0.684  0.68 4.361  4.23 0.136 4.192****** 959.4 658.6 15.79  2.00 0.424  0.39  0.35  0.26  0.26  0.00  0.00  0.00  0.00  0.00
 2020  69   266   265  31.8 0.684  0.68 4.361  4.24 0.118 4.192****** 963.6 661.8 15.86  2.00 0.423  0.39  0.35  0.26  0.26  0.00  0.00  0.00  0.00  0.00
 2020  70   267   266  29.9 0.684  0.68 4.361  4.26 0.103 4.192****** 966.9 665.0 15.93  2.00 0.423  0.39  0.34  0.26  0.26  0.00  0.00  0.00  0.00  0.00
 2020  71   268   267  29.6 0.684  0.68 4.361  4.27 .0923 4.192****** 969.4 668.2 16.01  2.00 0.422  0.39  0.34  0.26  0.25  0.00  0.00  0.00  0.00  0.00
 2020  72   269   268  30.0 0.684  0.68 4.361  4.28 .0825 4.192****** 971.6 671.4 16.09  2.00 0.421  0.39  0.34  0.26  0.25  0.00  0.00  0.00  0.00  0.00
 2020  73   270   269  28.6 0.684  0.68 4.361  4.29 .0754 4.192****** 973.2 674.6 16.18  2.00 0.420  0.39  0.34  0.26  0.25  0.00  0.00  0.00  0.00  0.00
 2020  74   271   270  28.4 0.684  0.68 4.361  4.29 .0698 4.192****** 974.5 677.8 16.27  2.00 0.419  0.39  0.34  0.26  0.25  0.00  0.00  0.00  0.00  0.00
 2020  75   272   271  28.5 0.684  0.68 4.361  4.30 .0610 4.192****** 976.5 681.0 16.36  2.00 0.418  0.38  0.34  0.26  0.25  0.00  0.00  0.00  0.00  0.00
 2020  76   273   272  28.5 0.684  0.68 4.361  4.31 .0553 4.192****** 977.8 684.2 16.45  2.00 0.417  0.38  0.34  0.26  0.25  0.00  0.00  0.00  0.00  0.00
 2020  77   274   273  30.0 0.684  0.68 4.361  4.31 .0491 4.192****** 979.2 687.3 16.54  2.00 0.416  0.38  0.34  0.25  0.25  0.00  0.00  0.00  0.00  0.00
 2020  78   275   274  30.5 0.684  0.68 4.361  4.32 .0436 4.192****** 980.4 690.5 16.64  2.00 0.415  0.38  0.34  0.25  0.25  0.00  0.00  0.00  0.00  0.00
 2020  79   276   275  30.8 0.684  0.68 4.361  4.32 .0376 4.192****** 981.8 693.6 16.73  2.00 0.414  0.38  0.33  0.25  0.25  0.00  0.00  0.00  0.00  0.00
 2020  80   277   276  29.7 0.684  0.68 4.361  4.33 .0318 4.192****** 983.1 696.7 16.82  2.00 0.413  0.38  0.33  0.25  0.25  0.00  0.00  0.00  0.00  0.00
 2020  81   278   277  29.5 0.684  0.68 4.361  4.33 .0303 4.192****** 983.4 699.9 16.93  2.00 0.413  0.38  0.33  0.25  0.25  0.00  0.00  0.00  0.00  0.00
 2020  82   279   278  28.9 0.684  0.68 4.361  4.33 .0271 4.192****** 984.2 703.0 17.03  2.00 0.412  0.38  0.33  0.25  0.25  0.00  0.00  0.00  0.00  0.00
 2020  83   280   279  28.4 0.684  0.68 4.361  4.34 .0224 4.192****** 985.2 706.1 17.12  2.00 0.411  0.38  0.33  0.25  0.24  0.00  0.00  0.00  0.00  0.00
 2020  84   281   280  26.8 0.684  0.68 4.361  4.34 .0182 4.192****** 986.2 709.2 17.22  2.00 0.410  0.38  0.33  0.25  0.24  0.00  0.00  0.00  0.00  0.00
 2020  85   282   281  26.8 0.685  0.68 4.361  4.35 .0149 4.192****** 986.9 712.2 17.32  2.00 1.388  1.24  1.09  0.82  0.81  0.00  0.00  0.00  0.00  0.00
 2020  86   283   282  27.8 0.686  0.69 4.361  4.35 .0149 4.192****** 986.9 715.3 17.43  2.00 0.925  0.82  0.72  0.54  0.53  0.00  0.00  0.00  0.00  0.00
 2020  87   284   283  29.5 0.687  0.69 4.361  4.35 .0149 4.192****** 986.9 718.4 17.54  2.00 0.806  0.72  0.62  0.46  0.46  0.00  0.00  0.00  0.00  0.00
 2020  88   285   284  29.8 0.688  0.69 4.361  4.35 .0149 4.192****** 986.9 721.4 17.65  2.00 0.954  0.85  0.72  0.54  0.53  0.00  0.00  0.00  0.00  0.00
 2020  89   286   285  28.6 0.688  0.69 4.364  4.35 .0119 4.194****** 987.6 724.5 17.74  2.00 1.059  0.94  0.79  0.59  0.58  0.00  0.00  0.00  0.00  0.00
 2020  90   287   286  28.5 0.689  0.69 4.366  4.35 .0100 4.195****** 988.6 727.5 17.84  2.00 0.915  0.81  0.67  0.51  0.50  0.00  0.00  0.00  0.00  0.00
 2020  91   288   287  27.5 0.690  0.69 4.368  4.36 .0082 4.197****** 989.5 730.6 17.94  2.00 0.937  0.83  0.68  0.51  0.50  0.00  0.00  0.00  0.00  0.00
 2020  92   289   288  27.2 0.691  0.69 4.371  4.36 .0069 4.199****** 990.3 733.6 18.04  2.00 0.661  0.59  0.47  0.35  0.35  0.00  0.00  0.00  0.00  0.00
 2020  93   290   289  28.8 0.693  0.69 4.374  4.36 .0093 4.201****** 990.3 736.6 18.14  2.00 0.626  0.56  0.44  0.33  0.33  0.00  0.00  0.00  0.00  0.00
 2020  94   291   290  27.7 0.694  0.69 4.376  4.36 .0121 4.203****** 990.3 739.6 18.25  2.00 0.704  0.62  0.49  0.37  0.36  0.00  0.00  0.00  0.00  0.00
 2020  95   292   291  28.3 0.695  0.70 4.378  4.36 .0144 4.206****** 990.3 742.6 18.36  2.00 0.668  0.59  0.46  0.34  0.34  0.00  0.00  0.00  0.00  0.00
 2020  96   293   292  28.0 0.696  0.70 4.380  4.36 .0167 4.208****** 990.3 745.6 18.46  2.00 0.696  0.62  0.47  0.35  0.35  0.00  0.00  0.00  0.00  0.00
 2020  97   294   293  28.2 0.697  0.70 4.385  4.36 .0190 4.210****** 990.3 748.6 18.57  2.00 0.752  0.67  0.50  0.38  0.37  0.00  0.00  0.00  0.00  0.00
 2020  98   295   294  29.1 0.699  0.70 4.387  4.36 .0213 4.213****** 990.3 751.5 18.68  2.00 0.483  0.43  0.32  0.24  0.24  0.00  0.00  0.00  0.00  0.00
 2020  99   296   295  27.3 0.701  0.70 4.389  4.36 .0258 4.216****** 990.3 754.5 18.78  2.00 0.456  0.40  0.30  0.22  0.22  0.00  0.00  0.00  0.00  0.00
 2020 100   297   296  26.0 0.703  0.70 4.393  4.36 .0280 4.220****** 990.3 757.5 18.89  2.00 0.456  0.40  0.30  0.22  0.22  0.00  0.00  0.00  0.00  0.00
 2020 101   298   297  25.5 0.706  0.71 4.396  4.36 .0303 4.223****** 990.3 760.4 19.00  2.00 0.456  0.40  0.30  0.22  0.22  0.00  0.00  0.00  0.00  0.00
 2020 102   299   298  25.9 0.711  0.71 4.403  4.36 .0341 4.233****** 990.3 763.3 19.09  2.00 0.456  0.40  0.30  0.22  0.21  0.00  0.00  0.00  0.00  0.00
 2020 103   300   299  25.8 0.715  0.72 4.409  4.36 .0386 4.243****** 990.3 766.1 19.19  2.00 0.456  0.40  0.30  0.22  0.21  0.00  0.00  0.00  0.00  0.00
 2020 104   301   300  27.7 0.720  0.72 4.419  4.36 .0473 4.259****** 990.3 768.9 19.27  2.00 0.456  0.40  0.30  0.22  0.21  0.00  0.00  0.00  0.00  0.00
 2020 105   302   301  28.0 0.723  0.72 4.431  4.36 .0575 4.276****** 990.3 771.8 19.36  2.00 0.456  0.40  0.30  0.22  0.21  0.00  0.00  0.00  0.00  0.00
 2020 106   303   302  28.4 0.727  0.73 4.449  4.36 .0700 4.299****** 990.3 774.7 19.45  2.00 0.456  0.40  0.30  0.22  0.21  0.00  0.00  0.00  0.00  0.00
 2020 107   304   303  29.7 0.731  0.73 4.469  4.36 .0871 4.330****** 990.3 777.7 19.52  2.00 0.456  0.40  0.30  0.22  0.21  0.00  0.00  0.00  0.00  0.00
 2020 108   305   304  28.8 0.734  0.73 4.488  4.36 0.107 4.359****** 990.3 780.6 19.60  2.00 0.456  0.40  0.30  0.22  0.21  0.00  0.00  0.00  0.00  0.00
 2020 109   306   305  29.1 0.738  0.74 4.512  4.36 0.127 4.395****** 990.3 783.6 19.67  2.00 0.457  0.40  0.30  0.22  0.21  0.00  0.00  0.00  0.00  0.00
 2020 110   307   306  27.6 0.741  0.74 4.530  4.36 0.148 4.422****** 990.3 786.5 19.75  2.00 0.457  0.40  0.30  0.22  0.21  0.00  0.00  0.00  0.00  0.00
 2020 111   308   307  28.1 0.745  0.75 4.545  4.36 0.168 4.450****** 990.3 789.4 19.84  2.00 0.456  0.40  0.30  0.22  0.21  0.00  0.00  0.00  0.00  0.00
 2020 112   309   308  27.5 0.749  0.75 4.559  4.36 0.183 4.478****** 990.3 792.4 19.93  2.00 0.456  0.40  0.30  0.22  0.21  0.00  0.00  0.00  0.00  0.00
 2020 113   310   309  27.2 0.753  0.75 4.568  4.36 0.196 4.499****** 990.3 795.3 20.03  2.00 0.455  0.40  0.30  0.22  0.21  0.00  0.00  0.00  0.00  0.00
 2020 114   311   310  28.0 0.757  0.76 4.576  4.36 0.207 4.521****** 990.3 798.3 20.13  2.00 0.454  0.40  0.30  0.22  0.21  0.00  0.00  0.00  0.00  0.00
 2020 115   312   311  27.2 0.760  0.76 4.588  4.36 0.215 4.547****** 990.3 801.2 20.22  2.00 0.454  0.40  0.30  0.22  0.21  0.00  0.00  0.00  0.00  0.00
 2020 116   313   312  27.6 0.764  0.76 4.594  4.36 0.225 4.563****** 990.3 804.1 20.33  2.00 0.453  0.40  0.30  0.22  0.21  0.00  0.00  0.00  0.00  0.00
 2020 117   314   313  26.7 0.768  0.77 4.602  4.36 0.233 4.584****** 990.3 807.0 20.43  2.00 0.452  0.40  0.30  0.22  0.21  0.00  0.00  0.00  0.00  0.00
 2020 118   315   314  26.5 0.772  0.77 4.613  4.36 0.241 4.609****** 990.3 809.9 20.52  2.00 0.451  0.40  0.30  0.22  0.21  0.00  0.00  0.00  0.00  0.00
 2020 119   316   315  27.7 0.776  0.78 4.621  4.36 0.251 4.631****** 990.3 812.8 20.62  2.00 0.451  0.40  0.30  0.22  0.21  0.00  0.00  0.00  0.00  0.00
 2020 120   317   316  26.7 0.780  0.78 4.630  4.36 0.259 4.651****** 990.3 815.6 20.72  2.00 0.450  0.40  0.30  0.22  0.21  0.00  0.00  0.00  0.00  0.00
 2020 121   318   317  26.4 0.784  0.78 4.638  4.36 0.267 4.672****** 990.3 818.4 20.81  2.00 0.449  0.40  0.30  0.22  0.21  0.00  0.00  0.00  0.00  0.00
 2020 122   319   318  26.5 0.788  0.79 4.647  4.36 0.276 4.692****** 990.3 821.1 20.90  2.00 0.449  0.39  0.30  0.22  0.21  0.00  0.00  0.00  0.00  0.00
 2020 123   320   319  27.5 0.793  0.79 4.654  4.36 0.284 4.708****** 990.3 823.9 21.00  2.00 0.448  0.39  0.30  0.22  0.21  0.00  0.00  0.00  0.00  0.00
 2020 124   321   320  26.5 0.797  0.80 4.661  4.36 0.292 4.728****** 990.3 826.6 21.10  2.00 0.447  0.39  0.30  0.22  0.21  0.00  0.00  0.00  0.00  0.00
 2020 125   322   321  26.5 0.801  0.80 4.669  4.36 0.300 4.749****** 990.3 829.3 21.19  2.00 0.447  0.39  0.30  0.22  0.21  0.00  0.00  0.00  0.00  0.00
 2020 126   323   322  28.0 0.805  0.80 4.677  4.36 0.307 4.771****** 990.3 832.1 21.29  2.00 0.446  0.39  0.30  0.22  0.21  0.00  0.00  0.00  0.00  0.00
 2020 127   324   323  28.4 0.809  0.81 4.686  4.36 0.315 4.794****** 990.3 835.0 21.39  2.00 0.445  0.39  0.29  0.22  0.21  0.00  0.00  0.00  0.00  0.00
 2020 128   325   324  28.0 0.812  0.81 4.691  4.36 0.323 4.811****** 990.3 837.9 21.50  2.00 0.444  0.39  0.29  0.22  0.21  0.00  0.00  0.00  0.00  0.00
 2020 129   326   325  28.2 0.816  0.82 4.699  4.36 0.330 4.834****** 990.3 840.8 21.61  2.00 0.443  0.39  0.29  0.22  0.21  0.00  0.00  0.00  0.00  0.00
 2020 130   327   326  27.4 0.820  0.82 4.707  4.36 0.337 4.855****** 990.3 843.6 21.71  2.00 0.443  0.39  0.29  0.22  0.21  0.00  0.00  0.00  0.00  0.00
 2020 131   328   327  26.8 0.824  0.82 4.714  4.36 0.345 4.876****** 990.3 846.5 21.82  2.00 0.442  0.39  0.29  0.21  0.21  0.00  0.00  0.00  0.00  0.00
 2020 132   329   328  26.4 0.828  0.83 4.722  4.36 0.353 4.896****** 990.3 849.3 21.93  2.00 0.441  0.39  0.29  0.21  0.21  0.00  0.00  0.00  0.00  0.00
 2020 133   330   329  27.0 0.832  0.83 4.729  4.36 0.360 4.917****** 990.3 852.2 22.03  2.00 0.440  0.39  0.29  0.21  0.21  0.00  0.00  0.00  0.00  0.00
 2020 134   331   330  27.7 0.836  0.84 4.738  4.36 0.368 4.939****** 990.3 854.9 22.13  2.00 0.439  0.39  0.29  0.21  0.21  0.00  0.00  0.00  0.00  0.00
 2020 135   332   331  27.8 0.840  0.84 4.743  4.36 0.375 4.956****** 990.3 857.8 22.24  2.00 0.438  0.38  0.29  0.21  0.21  0.00  0.00  0.00  0.00  0.00
 2020 136   333   332  27.9 0.844  0.84 4.750  4.36 0.382 4.978****** 990.3 860.6 22.35  2.00 0.437  0.38  0.29  0.21  0.21  0.00  0.00  0.00  0.00  0.00
 2020 137   334   333  27.7 0.848  0.85 4.758  4.36 0.389 5.000****** 990.3 863.4 22.46  2.00 0.436  0.38  0.29  0.21  0.21  0.00  0.00  0.00  0.00  0.00
 2020 138   335   334  26.8 0.851  0.85 4.765  4.36 0.396 5.021****** 990.3 866.3 22.57  2.00 0.435  0.38  0.29  0.21  0.21  0.00  0.00  0.00  0.00  0.00
 2020 139   336   335  26.3 0.855  0.86 4.772  4.36 0.403 5.041****** 990.3 869.1 22.68  2.00 0.435  0.38  0.29  0.21  0.21  0.00  0.00  0.00  0.00  0.00
 2020 140   337   336  26.0 0.860  0.86 4.777  4.36 0.410 5.055****** 990.3 871.8 22.79  2.00 0.434  0.38  0.29  0.21  0.21  0.00  0.00  0.00  0.00  0.00
 2020 141   338   337  25.9 0.864  0.86 4.785  4.36 0.416 5.075****** 990.3 874.4 22.88  2.00 0.433  0.38  0.29  0.21  0.21  0.00  0.00  0.00  0.00  0.00
 2020 142   339   338  25.7 0.868  0.87 4.790  4.36 0.423 5.089****** 990.3 877.0 22.98  2.00 0.432  0.38  0.29  0.21  0.21  0.00  0.00  0.00  0.00  0.00
 2020 143   340   339  26.1 0.873  0.87 4.797  4.36 0.428 5.109****** 990.3 879.5 23.07  2.00 0.432  0.38  0.29  0.21  0.20  0.00  0.00  0.00  0.00  0.00
 2020 144   341   340  26.3 0.877  0.88 4.802  4.36 0.435 5.124****** 990.3 882.1 23.17  2.00 0.431  0.38  0.29  0.21  0.20  0.00  0.00  0.00  0.00  0.00
 2020 145   342   341  26.5 0.881  0.88 4.809  4.36 0.441 5.144****** 990.3 884.6 23.27  2.00 0.430  0.38  0.29  0.21  0.20  0.00  0.00  0.00  0.00  0.00
 2020 146   343   342  25.7 0.885  0.89 4.814  4.36 0.447 5.159****** 990.3 887.2 23.37  2.00 0.430  0.38  0.29  0.21  0.20  0.00  0.00  0.00  0.00  0.00
 2020 147   344   343  25.6 0.890  0.89 4.821  4.36 0.453 5.178****** 990.3 889.7 23.46  2.00 0.429  0.38  0.29  0.21  0.20  0.00  0.00  0.00  0.00  0.00
 2020 148   345   344  27.2 0.894  0.89 4.826  4.36 0.459 5.194****** 990.3 892.1 23.56  2.00 0.428  0.37  0.29  0.21  0.20  0.00  0.00  0.00  0.00  0.00
 2020 149   346   345  26.5 0.898  0.90 4.833  4.36 0.465 5.214****** 990.3 894.6 23.65  2.00 0.428  0.37  0.29  0.21  0.20  0.00  0.00  0.00  0.00  0.00
 2020 150   347   346  25.8 0.902  0.90 4.838  4.36 0.471 5.228****** 990.3 897.1 23.74  2.00 0.427  0.37  0.28  0.21  0.20  0.00  0.00  0.00  0.00  0.00
 2020 151   348   347  25.0 0.907  0.91 4.844  4.36 0.476 5.246****** 990.3 899.5 23.83  2.00 0.427  0.37  0.28  0.21  0.20  0.00  0.00  0.00  0.00  0.00
 2020 152   349   348  25.8 0.911  0.91 4.849  4.36 0.482 5.261****** 990.3 901.9 23.93  2.00 0.426  0.37  0.28  0.21  0.20  0.00  0.00  0.00  0.00  0.00
 2020 153   350   349  25.7 0.915  0.92 4.855  4.36 0.487 5.280****** 990.3 904.3 24.02  2.00 0.425  0.37  0.28  0.21  0.20  0.00  0.00  0.00  0.00  0.00
 2020 154   351   350  26.2 0.920  0.92 4.860  4.36 0.494 5.295****** 990.3 906.6 24.11  2.00 0.425  0.37  0.28  0.21  0.20  0.00  0.00  0.00  0.00  0.00
 2020 155   352   351  25.9 0.924  0.92 4.866  4.36 0.498 5.314****** 990.3 909.0 24.20  2.00 0.424  0.37  0.28  0.21  0.20  0.00  0.00  0.00  0.00  0.00
 2020 156   353   352  25.6 0.928  0.93 4.872  4.36 0.504 5.329****** 990.3 911.4 24.29  2.00 0.424  0.37  0.28  0.21  0.20  0.00  0.00  0.00  0.00  0.00
 2020 157   354   353  25.6 0.933  0.93 4.876  4.36 0.509 5.343****** 990.3 913.9 24.39  2.00 0.423  0.37  0.28  0.21  0.20  0.00  0.00  0.00  0.00  0.00
 2020 158   355   354  25.5 0.937  0.94 4.882  4.36 0.515 5.357****** 990.3 916.3 24.48  2.00 0.422  0.37  0.28  0.21  0.20  0.00  0.00  0.00  0.00  0.00
 2020 159   356   355  26.1 0.942  0.94 4.886  4.36 0.519 5.372****** 990.3 918.7 24.58  2.00 0.421  0.37  0.28  0.21  0.20  0.00  0.00  0.00  0.00  0.00
 2020 160   357   356  26.5 0.946  0.95 4.893  4.36 0.525 5.392****** 990.3 921.1 24.68  2.00 0.421  0.37  0.28  0.21  0.20  0.00  0.00  0.00  0.00  0.00
 2020 161   358   357  24.6 0.950  0.95 4.897  4.36 0.531 5.406****** 990.3 923.6 24.78  2.00 0.420  0.37  0.28  0.21  0.20  0.00  0.00  0.00  0.00  0.00
 2020 162   359   358  25.2 0.955  0.95 4.903  4.36 0.536 5.424****** 990.3 926.0 24.87  2.00 0.419  0.37  0.28  0.20  0.20  0.00  0.00  0.00  0.00  0.00
 2020 163   360   359  25.0 0.959  0.96 4.908  4.36 0.542 5.438****** 990.3 928.4 24.97  2.00 0.419  0.37  0.28  0.20  0.20  0.00  0.00  0.00  0.00  0.00
 2020 164   361   360  25.5 0.964  0.96 4.913  4.36 0.546 5.457****** 990.3 930.8 25.07  2.00 0.418  0.36  0.28  0.20  0.20  0.00  0.00  0.00  0.00  0.00
 2020 165   362   361  24.8 0.968  0.97 4.919  4.36 0.552 5.470****** 990.3 933.1 25.16  2.00 0.418  0.36  0.28  0.20  0.20  0.00  0.00  0.00  0.00  0.00
 2020 166   363   362  25.5 0.973  0.97 4.923  4.36 0.556 5.484****** 990.3 935.4 25.25  2.00 0.417  0.36  0.28  0.20  0.20  0.00  0.00  0.00  0.00  0.00
 2020 167   364   363  26.2 0.977  0.98 4.928  4.36 0.562 5.499****** 990.3 937.8 25.35  2.00 0.416  0.36  0.28  0.20  0.20  0.00  0.00  0.00  0.00  0.00
 2020 168   365   364  26.2 0.981  0.98 4.932  4.36 0.566 5.514****** 990.3 940.1 25.45  2.00 0.415  0.36  0.28  0.20  0.20  0.00  0.00  0.00  0.00  0.00
 2020 169   366   365  25.7 0.986  0.99 4.937  4.36 0.571 5.528****** 990.3 942.5 25.55  2.00 0.415  0.36  0.28  0.20  0.20  0.00  0.00  0.00  0.00  0.00
 2020 170   367   366  25.0 0.990  0.99 4.941  4.36 0.575 5.542****** 990.3 944.8 25.65  2.00 0.414  0.36  0.28  0.20  0.20  0.00  0.00  0.00  0.00  0.00
 2020 171   368   367  25.1     1  0.99 4.946  4.36 0.579 5.560****** 990.3 947.1 25.75  2.00 0.413  0.36  0.28  0.20  0.20  0.00  0.00  0.00  0.00  0.00
 2020 172   369   368  25.7     1  1.00 4.952  4.36 0.585 5.575****** 990.3 949.5 25.85  2.00 0.413  0.36  0.28  0.20  0.20  0.00  0.00  0.00  0.00  0.00
 2020 173   370   369  25.5 1.007  1.01 4.956  4.36 0.589 5.589****** 990.3 951.8 25.95  2.00 0.412  0.36  0.28  0.20  0.20  0.00  0.00  0.00  0.00  0.00
 2020 174   371   370  25.0 1.011  1.01 4.958  4.36 0.593 5.594****** 990.3 954.1 26.05  2.00 0.411  0.36  0.28  0.20  0.20  0.00  0.00  0.00  0.00  0.00
 2020 175   372   371  24.9 1.014  1.01 4.961  4.36 0.596 5.598****** 990.3 956.5 26.16  2.00 0.410  0.36  0.28  0.20  0.20  0.00  0.00  0.00  0.00  0.00
 2020 176   373   372  25.7 1.018  1.02 4.967  4.36 0.599 5.605****** 990.3 958.8 26.26  2.00 0.409  0.36  0.28  0.20  0.20  0.00  0.00  0.00  0.00  0.00
 2020 177   374   373  25.3 1.021  1.02 4.975  4.36 0.604 5.610****** 990.3 961.2 26.36  2.00 0.409  0.36  0.27  0.20  0.20  0.00  0.00  0.00  0.00  0.00
 2020 178   375   374  24.5 1.025  1.02 4.983  4.36 0.612 5.616****** 990.3 963.5 26.44  2.00 0.409  0.36  0.27  0.20  0.20  0.00  0.00  0.00  0.00  0.00
 2020 179   376   375  25.1 1.029  1.03 4.990  4.36 0.620 5.621****** 990.3 965.7 26.53  2.00 0.408  0.36  0.27  0.20  0.20  0.00  0.00  0.00  0.00  0.00
 2020 180   377   376  25.1 1.032  1.03 4.997  4.36 0.627 5.626****** 990.3 968.0 26.62  2.00 0.408  0.35  0.27  0.20  0.20  0.00  0.00  0.00  0.00  0.00
 2020 181   378   377  25.3 1.036  1.04 5.007  4.36 0.634 5.633****** 990.3 970.2 26.69  2.00 0.408  0.35  0.27  0.20  0.20  0.00  0.00  0.00  0.00  0.00
 2020 182   379   378  24.5 1.039  1.04 5.019  4.36 0.644 5.639****** 990.3 972.4 26.75  2.00 0.408  0.35  0.27  0.20  0.20  0.00  0.00  0.00  0.00  0.00
 2020 183   380   379  25.2 1.043  1.04 5.032  4.36 0.656 5.649****** 990.3 974.6 26.81  2.00 0.408  0.36  0.27  0.20  0.20  0.00  0.00  0.00  0.00  0.00
 2020 184   381   380  24.9 1.047  1.05 5.042  4.36 0.669 5.655****** 990.3 976.8 26.88  2.00 0.408  0.35  0.27  0.20  0.20  0.00  0.00  0.00  0.00  0.00
 2020 185   382   381  25.5 1.050  1.05 5.049  4.36 0.679 5.660****** 990.3 979.1 26.97  2.00 0.407  0.35  0.27  0.20  0.20  0.00  0.00  0.00  0.00  0.00
 2020 186   383   382  25.1 1.054  1.05 5.058  4.36 0.686 5.667****** 990.3 981.3 27.05  2.00 0.407  0.35  0.27  0.20  0.20  0.00  0.00  0.00  0.00  0.00
 2020 187   384   383  24.4 1.058  1.06 5.070  4.36 0.696 5.673****** 990.3 983.6 27.12  2.00 0.407  0.35  0.27  0.20  0.20  0.00  0.00  0.00  0.00  0.00
 2020 188   385   384  25.2 1.061  1.06 5.079  4.36 0.705 5.680****** 990.3 985.8 27.20  2.00 0.407  0.35  0.27  0.20  0.20  0.00  0.00  0.00  0.00  0.00
 2020 189   386   385  24.5 1.065  1.06 5.088  4.36 0.717 5.687****** 990.3 988.0 27.27  2.00 0.407  0.35  0.27  0.20  0.20  0.00  0.00  0.00  0.00  0.00
 2020 190   387   386  24.6 1.068  1.07 5.098  4.36 0.726 5.691****** 990.3 990.1 27.35  2.00 0.407  0.35  0.27  0.20  0.20  0.00  0.00  0.00  0.00  0.00
 2020 191   388   387  25.5 1.072  1.07 5.107  4.36 0.735 5.698****** 990.3 992.3 27.42  2.00 0.407  0.35  0.27  0.20  0.20  0.00  0.00  0.00  0.00  0.00
 2020 192   389   388  24.6 1.076  1.08 5.117  4.36 0.744 5.705****** 990.3 994.5 27.49  2.00 0.406  0.35  0.27  0.20  0.20  0.00  0.00  0.00  0.00  0.00
 2020 193   390   389  24.6 1.079  1.08 5.126  4.36 0.754 5.712****** 990.3 996.7 27.57  2.00 0.406  0.35  0.27  0.20  0.20  0.00  0.00  0.00  0.00  0.00
 2020 194   391   390  24.0 1.083  1.08 5.135  4.36 0.764 5.718****** 990.3 998.8 27.64  2.00 0.406  0.35  0.27  0.20  0.20  0.00  0.00  0.00  0.00  0.00
 2020 195   392   391  24.6 1.087  1.09 5.146  4.36 0.773 5.725****** 990.3  1001 27.70  2.00 0.406  0.35  0.27  0.20  0.20  0.00  0.00  0.00  0.00  0.00
 2020 196   393   392  23.4 1.090  1.09 5.152  4.36 0.782 5.731****** 990.3  1003 27.78  2.00 0.406  0.35  0.27  0.20  0.20  0.00  0.00  0.00  0.00  0.00
 2020 197   394   393  23.0 1.094  1.09 5.159  4.36 0.790 5.736****** 990.3  1005 27.85  2.00 0.406  0.35  0.27  0.20  0.20  0.00  0.00  0.00  0.00  0.00
 2020 198   395   394  23.5 1.098  1.10 5.167  4.36 0.797 5.742****** 990.3  1007 27.91  2.00 0.406  0.35  0.27  0.20  0.20  0.00  0.00  0.00  0.00  0.00
 2020 199   396   395  24.0 1.101  1.10 5.173  4.36 0.803 5.747****** 990.3  1009 27.98  2.00 0.405  0.35  0.27  0.20  0.20  0.00  0.00  0.00  0.00  0.00
 2020 200   397   396  23.3 1.105  1.10 5.181  4.36 0.810 5.753****** 990.3  1011 28.05  2.00 0.405  0.35  0.27  0.20  0.20  0.00  0.00  0.00  0.00  0.00
 2020 201   398   397  23.9 1.109  1.11 5.190  4.36 0.818 5.759****** 990.3  1013 28.10  2.00 0.406  0.35  0.27  0.20  0.20  0.00  0.00  0.00  0.00  0.00
 2020 202   399   398  23.4 1.112  1.11 5.196  4.36 0.827 5.765****** 990.3  1015 28.18  2.00 0.405  0.35  0.27  0.20  0.20  0.00  0.00  0.00  0.00  0.00
 2020 203   400   399  23.0 1.116  1.12 5.203  4.36 0.833 5.771****** 990.3  1016 28.25  2.00 0.405  0.35  0.27  0.20  0.20  0.00  0.00  0.00  0.00  0.00
 2020 204   401   400  24.1 1.119  1.12 5.212  4.36 0.841 5.777****** 990.3  1018 28.31  2.00 0.405  0.35  0.27  0.20  0.20  0.00  0.00  0.00  0.00  0.00
 2020 205   402   401  24.1 1.123  1.12 5.219  4.36 0.849 5.783****** 990.3  1020 28.38  2.00 0.405  0.35  0.27  0.20  0.20  0.00  0.00  0.00  0.00  0.00
 2020 206   403   402  23.6 1.127  1.13 5.227  4.36 0.857 5.789****** 990.3  1022 28.45  2.00 0.405  0.35  0.27  0.20  0.20  0.00  0.00  0.00  0.00  0.00
 2020 207   404   403  24.2 1.130  1.13 5.236  4.36 0.865 5.796****** 990.3  1024 28.51  2.00 0.405  0.35  0.27  0.20  0.20  0.00  0.00  0.00  0.00  0.00
 2020 208   405   404  24.8 1.134  1.13 5.243  4.36 0.874 5.803****** 990.3  1026 28.59  2.00 0.404  0.35  0.27  0.20  0.20  0.00  0.00  0.00  0.00  0.00
 2020 209   406   405  24.2 1.138  1.14 5.252  4.36 0.881 5.809****** 990.3  1028 28.66  2.00 0.404  0.35  0.27  0.20  0.20  0.00  0.00  0.00  0.00  0.00

*DSSAT Cropping System Model Ver. 4.8.0.019 -develop  APR 08, 2023 12:34:37

*RUN   2        : IITA-TMS-IBA000070        CSYCA048 UYAG1701    1
 MODEL          : CSYCA048 - Cassava
 EXPERIMENT     : UYAG1701 CS UYT_GXE
 DATA PATH      :
 TREATMENT  1   : IITA-TMS-IBA000070        CSYCA048
  
@YEAR DOY   DAS   DAP TMEAN  GSTD  RSTD LAIPD LAISD  LAID  CHTD SDWAD SNWLD SNWSD SHRTD  RDPD  RL1D  RL2D  RL3D  RL4D  RL5D  RL6D  RL7D  RL8D  RL9D RL10D
 2017 242     1     0  24.5     0  0.00     0  0.00     0     0 450.0     0     0  0.00  0.20 0.000  0.00  0.00  0.00  0.00  0.00  0.00  0.00  0.00  0.00
 2017 243     2     1  24.2     0  0.00     0  0.00     0     0 450.0     0     0  0.00  0.20 0.000  0.00  0.00  0.00  0.00  0.00  0.00  0.00  0.00  0.00
 2017 244     3     2  24.3     0  0.00     0  0.00     0     0 450.0     0     0  0.00  0.20 0.000  0.00  0.00  0.00  0.00  0.00  0.00  0.00  0.00  0.00
 2017 245     4     3  24.7     0  0.00     0  0.00     0     0 450.0     0     0  0.00  0.20 0.000  0.00  0.00  0.00  0.00  0.00  0.00  0.00  0.00  0.00
 2017 246     5     4  23.9     0  0.00     0  0.00     0     0 450.0     0     0  0.00  0.20 0.000  0.00  0.00  0.00  0.00  0.00  0.00  0.00  0.00  0.00
 2017 247     6     5  25.2     0  0.00     0  0.00     0     0 450.0     0     0  0.00  0.20 0.000  0.00  0.00  0.00  0.00  0.00  0.00  0.00  0.00  0.00
 2017 248     7     6  25.0     0  0.00     0  0.00     0     0 450.0     0     0  0.00  0.20 0.000  0.00  0.00  0.00  0.00  0.00  0.00  0.00  0.00  0.00
 2017 249     8     7  25.5     0  0.00     0  0.00     0     0 450.0     0     0  0.00  0.20 0.000  0.00  0.00  0.00  0.00  0.00  0.00  0.00  0.00  0.00
 2017 250     9     8  24.5     0  0.00     0  0.00     0     0 450.0     0     0  0.00  0.20 0.000  0.00  0.00  0.00  0.00  0.00  0.00  0.00  0.00  0.00
 2017 251    10     9  24.3     0  0.00     0  0.00     0     0 443.1     0     0  0.00  0.20 0.000  0.00  0.00  0.00  0.00  0.00  0.00  0.00  0.00  0.00
 2017 252    11    10  25.5 .0046  0.00     0  0.00     0     0 443.1     0     0  0.00  0.21 0.000  0.00  0.00  0.00  0.00  0.00  0.00  0.00  0.00  0.00
 2017 253    12    11  26.1 .0090  0.01     0  0.00     0     0 443.1     0     0  0.00  0.23 0.000  0.00  0.00  0.00  0.00  0.00  0.00  0.00  0.00  0.00
 2017 254    13    12  24.8 .0133  0.01     0  0.00     0     0 443.1     0     0  0.00  0.24 0.000  0.00  0.00  0.00  0.00  0.00  0.00  0.00  0.00  0.00
 2017 255    14    13  24.9 .0178  0.02 .0043  0.00     0 .0045 433.9     0     0529.51  0.25 0.002  0.00  0.00  0.00  0.00  0.00  0.00  0.00  0.00  0.00
 2017 256    15    14  24.4 .0224  0.02 .0120  0.00 .0043 .0132 421.1     0 .0059221.30  0.26 0.005  0.00  0.00  0.00  0.00  0.00  0.00  0.00  0.00  0.00
 2017 257    16    15  25.1 .0269  0.03 .0205  0.00 .0120 .0270 407.3     0 .0199134.41  0.28 0.008  0.01  0.00  0.00  0.00  0.00  0.00  0.00  0.00  0.00
 2017 258    17    16  24.8 .0314  0.03 .0357  0.00 .0205 .0495 387.1     0 .0423 84.81  0.29 0.012  0.01  0.01  0.00  0.00  0.00  0.00  0.00  0.00  0.00
 2017 259    18    17  24.1 .0360  0.04 .0544  0.00 .0357 .0750 363.2     0 .0771 58.97  0.30 0.016  0.01  0.01  0.00  0.00  0.00  0.00  0.00  0.00  0.00
 2017 260    19    18  24.7 .0405  0.04 .0767  0.00 .0544 0.106 337.0     0 0.127 43.85  0.31 0.021  0.02  0.01  0.00  0.00  0.00  0.00  0.00  0.00  0.00
 2017 261    20    19  25.2 .0451  0.05 0.103  0.00 .0767 0.143 307.9     0 0.196 34.06  0.32 0.027  0.02  0.02  0.00  0.00  0.00  0.00  0.00  0.00  0.00
 2017 262    21    20  26.0 .0496  0.05 0.134  0.00 0.103 0.187 275.1     0 0.285 27.29  0.33 0.033  0.03  0.02  0.00  0.00  0.00  0.00  0.00  0.00  0.00
 2017 263    22    21  25.5 .0539  0.05 0.162  0.00 0.134 0.229 247.4     0 0.398 23.09  0.35 0.039  0.03  0.03  0.00  0.00  0.00  0.00  0.00  0.00  0.00
 2017 264    23    22  25.0 .0583  0.06 0.194  0.00 0.162 0.270 211.8     0 0.535 19.55  0.36 0.046  0.04  0.03  0.00  0.00  0.00  0.00  0.00  0.00  0.00
 2017 265    24    23  24.6 .0629  0.06 0.231  0.00 0.194 0.314 179.6     0 0.696 17.00  0.37 0.053  0.05  0.04  0.01  0.00  0.00  0.00  0.00  0.00  0.00
 2017 266    25    24  24.8 .0674  0.07 0.243  0.00 0.231 0.355 179.6     0 0.881 16.75  0.38 0.055  0.05  0.04  0.01  0.00  0.00  0.00  0.00  0.00  0.00
 2017 267    26    25  24.8 .0720  0.07 0.256  0.00 0.243 0.395 179.6     0 1.073 16.53  0.39 0.057  0.05  0.04  0.01  0.00  0.00  0.00  0.00  0.00  0.00
 2017 268    27    26  25.5 .0766  0.08 0.269  0.00 0.256 0.437 179.6     0 1.273 16.30  0.40 0.060  0.05  0.04  0.01  0.00  0.00  0.00  0.00  0.00  0.00
 2017 269    28    27  25.1 .0810  0.08 0.276  0.00 0.269 0.479 179.6     0 1.484 16.24  0.41 0.061  0.05  0.04  0.01  0.00  0.00  0.00  0.00  0.00  0.00
 2017 270    29    28  25.0 .0855  0.09 0.295  0.00 0.276 0.520 179.6     0 1.702 15.93  0.42 0.064  0.05  0.04  0.01  0.00  0.00  0.00  0.00  0.00  0.00
 2017 271    30    29  25.2 .0900  0.09 0.308  0.00 0.295 0.566 179.6     0 1.934 15.79  0.43 0.066  0.06  0.04  0.01  0.00  0.00  0.00  0.00  0.00  0.00
 2017 272    31    30  24.9 .0946  0.09 0.323  0.00 0.308 0.606 179.6     0 2.174 15.61  0.44 0.068  0.06  0.05  0.01  0.00  0.00  0.00  0.00  0.00  0.00
 2017 273    32    31  25.5 0.099  0.10 0.335  0.00 0.323 0.649 179.6     0 2.427 15.51  0.45 0.070  0.06  0.05  0.01  0.00  0.00  0.00  0.00  0.00  0.00
 2017 274    33    32  25.5 0.104  0.10 0.356  0.00 0.335 0.687 179.6     0 2.692 15.25  0.47 0.073  0.06  0.05  0.01  0.00  0.00  0.00  0.00  0.00  0.00
 2017 275    34    33  26.0 0.108  0.11 0.368  0.00 0.356 0.726 179.6     0 2.979 15.16  0.48 0.075  0.06  0.05  0.02  0.00  0.00  0.00  0.00  0.00  0.00
 2017 276    35    34  26.0 0.112  0.11 0.393  0.00 0.368 0.775 179.6     0 3.280 14.94  0.49 0.079  0.07  0.05  0.02  0.00  0.00  0.00  0.00  0.00  0.00
 2017 277    36    35  25.5 0.117  0.12 0.410  0.00 0.393 0.817 179.6     0 3.603 14.82  0.50 0.081  0.07  0.06  0.02  0.00  0.00  0.00  0.00  0.00  0.00
 2017 278    37    36  24.0 0.121  0.12 0.431  0.00 0.410 0.851 179.6     0 3.926 14.64  0.51 0.085  0.07  0.06  0.02  0.00  0.00  0.00  0.00  0.00  0.00
 2017 279    38    37  25.6 0.126  0.13 0.457  0.00 0.431 0.889 179.6     0 4.268 14.44  0.52 0.088  0.08  0.06  0.02  0.00  0.00  0.00  0.00  0.00  0.00
 2017 280    39    38  25.4 0.130  0.13 0.472  0.00 0.457 0.927 179.6     0 4.626 14.39  0.53 0.090  0.08  0.06  0.02  0.00  0.00  0.00  0.00  0.00  0.00
 2017 281    40    39  25.2 0.134  0.13 0.489  0.00 0.472 0.964 179.6     0 4.985 14.31  0.54 0.093  0.08  0.06  0.03  0.00  0.00  0.00  0.00  0.00  0.00
 2017 282    41    40  25.6 0.139  0.14 0.511  0.00 0.489 1.002 179.6     0 5.361 14.20  0.56 0.096  0.08  0.07  0.03  0.01  0.00  0.00  0.00  0.00  0.00
 2017 283    42    41  25.6 0.143  0.14 0.530  0.00 0.511 1.045 179.6     0 5.767 14.13  0.57 0.098  0.08  0.07  0.03  0.01  0.00  0.00  0.00  0.00  0.00
 2017 284    43    42  25.2 0.148  0.15 0.558  0.00 0.530 1.082 179.6     0 6.177 13.99  0.58 0.102  0.09  0.07  0.03  0.01  0.00  0.00  0.00  0.00  0.00
 2017 285    44    43  25.4 0.152  0.15 0.573  0.00 0.558 1.124 179.6     0 6.611 13.96  0.59 0.104  0.09  0.07  0.03  0.01  0.00  0.00  0.00  0.00  0.00
 2017 286    45    44  25.1 0.157  0.16 0.603  0.00 0.573 1.161 179.6     0 7.056 13.83  0.60 0.108  0.09  0.07  0.03  0.01  0.00  0.00  0.00  0.00  0.00
 2017 287    46    45  25.6 0.161  0.16 0.634  0.00 0.603 1.199 179.6     0 7.528 13.70  0.61 0.112  0.10  0.08  0.04  0.02  0.00  0.00  0.00  0.00  0.00
 2017 288    47    46  26.0 0.166  0.17 0.663  0.00 0.634 1.238 179.6     0 8.034 13.62  0.62 0.116  0.10  0.08  0.04  0.02  0.00  0.00  0.00  0.00  0.00
 2017 289    48    47  25.9 0.170  0.17 0.691  0.00 0.663 1.277 179.6     0 8.573 13.54  0.63 0.119  0.10  0.08  0.04  0.02  0.00  0.00  0.00  0.00  0.00
 2017 290    49    48  26.1 0.174  0.17 0.720  0.00 0.691 1.316 179.6     0 9.144 13.48  0.64 0.123  0.10  0.08  0.04  0.02  0.00  0.00  0.00  0.00  0.00
 2017 291    50    49  24.7 0.178  0.18 0.739  0.00 0.720 1.352 179.6     0 9.728 13.48  0.65 0.125  0.11  0.09  0.04  0.02  0.00  0.00  0.00  0.00  0.00
 2017 292    51    50  25.3 0.183  0.18 0.768  0.00 0.739 1.394 179.6     0 10.32 13.42  0.66 0.128  0.11  0.09  0.04  0.02  0.00  0.00  0.00  0.00  0.00
 2017 293    52    51  26.0 0.187  0.19 0.802  0.00 0.768 1.433 179.6     0 10.92 13.35  0.67 0.132  0.11  0.09  0.05  0.03  0.00  0.00  0.00  0.00  0.00
 2017 294    53    52  26.0 0.192  0.19 0.832  0.00 0.802 1.472 179.6     0 11.56 13.31  0.68 0.135  0.12  0.09  0.05  0.03  0.00  0.00  0.00  0.00  0.00
 2017 295    54    53  25.5 0.196  0.20 0.872  0.00 0.832 1.510 179.6     0 12.20 13.22  0.69 0.140  0.12  0.10  0.05  0.03  0.00  0.00  0.00  0.00  0.00
 2017 296    55    54  26.2 0.200  0.20 0.904  0.00 0.872 1.550 179.6     0 12.91 13.19  0.70 0.144  0.12  0.10  0.05  0.03  0.00  0.00  0.00  0.00  0.00
 2017 297    56    55  26.7 0.205  0.20 0.939  0.00 0.904 1.586 179.6     0 13.65 13.15  0.71 0.148  0.13  0.10  0.06  0.04  0.01  0.00  0.00  0.00  0.00
 2017 298    57    56  26.2 0.209  0.21 0.984  0.00 0.939 1.621 179.6     0 14.43 13.07  0.72 0.153  0.13  0.11  0.06  0.04  0.01  0.00  0.00  0.00  0.00
 2017 299    58    57  25.7 0.213  0.21 1.027  0.00 0.984 1.654 179.6     0 15.24 13.02  0.73 0.158  0.13  0.11  0.06  0.04  0.01  0.00  0.00  0.00  0.00
 2017 300    59    58  25.3 0.217  0.22 1.065  0.00 1.027 1.687 179.6     0 16.08 12.99  0.74 0.163  0.14  0.11  0.06  0.04  0.01  0.00  0.00  0.00  0.00
 2017 301    60    59  24.5 0.222  0.22 1.113  0.00 1.065 1.717 179.6     0 16.93 12.92  0.75 0.168  0.14  0.12  0.07  0.05  0.01  0.00  0.00  0.00  0.00
 2017 302    61    60  25.4 0.226  0.23 1.155  0.00 1.113 1.750 179.6     0 17.81 12.89  0.76 0.173  0.15  0.12  0.07  0.05  0.01  0.00  0.00  0.00  0.00
 2017 303    62    61  25.5 0.231  0.23 1.192  0.00 1.155 1.783 179.6     0 18.72 12.87  0.77 0.177  0.15  0.12  0.07  0.05  0.02  0.00  0.00  0.00  0.00
 2017 304    63    62  26.2 0.235  0.24 1.231  0.00 1.192 1.818 179.6     0 19.66 12.86  0.78 0.181  0.15  0.13  0.07  0.05  0.02  0.00  0.00  0.00  0.00
 2017 305    64    63  25.0 0.239  0.24 1.271  0.00 1.231 1.850 179.6     0 20.64 12.84  0.79 0.185  0.16  0.13  0.08  0.06  0.02  0.00  0.00  0.00  0.00
 2017 306    65    64  25.1 0.244  0.24 1.298  0.00 1.271 1.880 179.6     0 21.66 12.86  0.80 0.188  0.16  0.13  0.08  0.06  0.02  0.00  0.00  0.00  0.00
 2017 307    66    65  25.3 0.248  0.25 1.351  0.00 1.298 1.910 179.6     0 22.68 12.82  0.81 0.194  0.16  0.13  0.08  0.06  0.02  0.00  0.00  0.00  0.00
 2017 308    67    66  25.5 0.252  0.25 1.404  0.00 1.351 1.942 179.6     0 23.73 12.77  0.82 0.200  0.17  0.14  0.08  0.06  0.03  0.00  0.00  0.00  0.00
 2017 309    68    67  25.1 0.256  0.26 1.448  0.00 1.404 1.973 179.6     0 24.80 12.76  0.83 0.204  0.17  0.14  0.09  0.07  0.03  0.00  0.00  0.00  0.00
 2017 310    69    68  25.5 0.261  0.26 1.504  0.00 1.448 2.005 179.6     0 25.91 12.73  0.84 0.210  0.18  0.15  0.09  0.07  0.03  0.00  0.00  0.00  0.00
 2017 311    70    69  25.7 0.265  0.26 1.559  0.00 1.497 2.034 179.6     0 27.09 12.70  0.85 0.216  0.18  0.15  0.09  0.07  0.03  0.00  0.00  0.00  0.00
 2017 312    71    70  25.5 0.269  0.27 1.609  0.00 1.559 2.061 179.6     0 28.33 12.69  0.86 0.221  0.19  0.15  0.09  0.08  0.04  0.00  0.00  0.00  0.00
 2017 313    72    71  26.1 0.273  0.27 1.652  0.00 1.609 2.088 179.6     0 29.64 12.69  0.87 0.225  0.19  0.16  0.10  0.08  0.04  0.00  0.00  0.00  0.00
 2017 314    73    72  26.1 0.276  0.28 1.700  0.00 1.652 2.112 179.6     0 31.03 12.69  0.88 0.230  0.20  0.16  0.10  0.08  0.04  0.00  0.00  0.00  0.00
 2017 315    74    73  26.0 0.279  0.28 1.744  0.00 1.700 2.134 179.6     0 32.48 12.71  0.89 0.234  0.20  0.16  0.10  0.08  0.04  0.01  0.00  0.00  0.00
 2017 316    75    74  25.3 0.282  0.28 1.793  0.00 1.744 2.154 179.6     0 33.99 12.71  0.90 0.238  0.20  0.17  0.10  0.09  0.04  0.01  0.00  0.00  0.00
 2017 317    76    75  26.2 0.285  0.28 1.842  0.00 1.788 2.172 179.6     0 35.52 12.71  0.92 0.243  0.21  0.17  0.11  0.09  0.05  0.01  0.00  0.00  0.00
 2017 318    77    76  26.1 0.287  0.29 1.877  0.00 1.842 2.189 179.6     0 37.09 12.74  0.93 0.246  0.21  0.17  0.11  0.09  0.05  0.01  0.00  0.00  0.00
 2017 319    78    77  26.2 0.290  0.29 1.922  0.00 1.877 2.206 179.6     0 38.67 12.75  0.94 0.251  0.21  0.18  0.11  0.09  0.05  0.01  0.00  0.00  0.00
 2017 320    79    78  25.8 0.293  0.29 1.962  0.00 1.919 2.219 179.6     0 40.27 12.76  0.95 0.255  0.22  0.18  0.11  0.10  0.05  0.01  0.00  0.00  0.00
 2017 321    80    79  25.9 0.295  0.30 2.012  0.00 1.962 2.236 179.6     0 41.88 12.77  0.96 0.260  0.22  0.18  0.11  0.10  0.05  0.01  0.00  0.00  0.00
 2017 322    81    80  25.7 0.298  0.30 2.054  0.00 2.007 2.250 179.6     0 43.53 12.77  0.97 0.265  0.23  0.19  0.12  0.10  0.06  0.02  0.00  0.00  0.00
 2017 323    82    81  24.5 0.301  0.30 2.099  0.00 2.054 2.263 179.6     0 45.15 12.77  0.98 0.270  0.23  0.19  0.12  0.10  0.06  0.02  0.00  0.00  0.00
 2017 324    83    82  24.4 0.304  0.30 2.129  0.00 2.092 2.273 179.6     0 46.76 12.79  0.99 0.274  0.23  0.19  0.12  0.11  0.06  0.02  0.00  0.00  0.00
 2017 325    84    83  25.5 0.307  0.31 2.168  0.00 2.129 2.287 179.6     0 48.44 12.79  1.00 0.278  0.24  0.19  0.12  0.11  0.06  0.02  0.00  0.00  0.00
 2017 326    85    84  25.6 0.310  0.31 2.209  0.00 2.168 2.301 179.6     0 50.14 12.80  1.01 0.283  0.24  0.20  0.13  0.11  0.06  0.03  0.00  0.00  0.00
 2017 327    86    85  25.0 0.313  0.31 2.246  0.00 2.206 2.314 179.6     0 51.86 12.81  1.02 0.287  0.24  0.20  0.13  0.11  0.07  0.03  0.00  0.00  0.00
 2017 328    87    86  25.5 0.316  0.32 2.286  0.00 2.246 2.328 179.6     0 53.65 12.82  1.02 0.292  0.25  0.20  0.13  0.12  0.07  0.03  0.00  0.00  0.00
 2017 329    88    87  25.7 0.319  0.32 2.322  0.00 2.282 2.342 179.6     0 55.54 12.84  1.03 0.296  0.25  0.21  0.13  0.12  0.07  0.03  0.00  0.00  0.00
 2017 330    89    88  24.8 0.322  0.32 2.362  0.00 2.322 2.354 179.6     0 57.44 12.86  1.04 0.300  0.26  0.21  0.14  0.12  0.07  0.03  0.00  0.00  0.00
 2017 331    90    89  24.5 0.324  0.32 2.388  0.00 2.357 2.362 179.6     0 59.41 12.89  1.05 0.304  0.26  0.21  0.14  0.12  0.07  0.04  0.00  0.00  0.00
 2017 332    91    90  24.0 0.327  0.33 2.418  0.00 2.388 2.372 179.6     0 61.45 12.92  1.06 0.306  0.26  0.21  0.14  0.12  0.07  0.04  0.00  0.00  0.00
 2017 333    92    91  25.1 0.329  0.33 2.442  0.00 2.415 2.380 179.6     0 63.56 12.96  1.07 0.308  0.26  0.22  0.14  0.13  0.08  0.04  0.00  0.00  0.00
 2017 334    93    92  25.5 0.331  0.33 2.471  0.00 2.442 2.390 179.6     0 65.71 13.00  1.08 0.322  0.28  0.23  0.15  0.13  0.08  0.04  0.00  0.00  0.00
 2017 335    94    93  24.4 0.333  0.33 2.497  0.00 2.471 2.397 179.6     0 67.88 13.04  1.09 0.330  0.29  0.24  0.16  0.14  0.09  0.05  0.00  0.00  0.00
 2017 336    95    94  26.0 0.335  0.34 2.520  0.00 2.491 2.405 179.6     0 70.09 13.08  1.10 0.334  0.30  0.25  0.16  0.15  0.09  0.05  0.00  0.00  0.00
 2017 337    96    95  25.8 0.337  0.34 2.545  0.00 2.520 2.413 179.6     0 72.34 13.12  1.11 0.337  0.31  0.25  0.17  0.15  0.09  0.05  0.00  0.00  0.00
 2017 338    97    96  26.3 0.339  0.34 2.559  0.00 2.543 2.418 179.6     0 74.63 13.17  1.12 0.341  0.32  0.26  0.17  0.15  0.10  0.06  0.00  0.00  0.00
 2017 339    98    97  25.2 0.341  0.34 2.579  0.00 2.559 2.425 179.6     0 76.94 13.22  1.13 0.345  0.32  0.27  0.17  0.16  0.10  0.06  0.00  0.00  0.00
 2017 340    99    98  25.9 0.343  0.34 2.598  0.00 2.579 2.430 179.6     0 79.34 13.26  1.14 0.348  0.33  0.27  0.18  0.16  0.10  0.06  0.00  0.00  0.00
 2017 341   100    99  25.8 0.344  0.34 2.611  0.00 2.593 2.434 179.6     0 81.73 13.32  1.15 0.352  0.34  0.28  0.18  0.17  0.11  0.06  0.00  0.00  0.00
 2017 342   101   100  25.3 0.346  0.35 2.630  0.00 2.611 2.441 179.6     0 84.11 13.37  1.16 0.356  0.35  0.29  0.19  0.17  0.11  0.07  0.00  0.00  0.00
 2017 343   102   101  24.5 0.348  0.35 2.638  0.00 2.630 2.446 179.6     0 86.43 13.45  1.17 0.309  0.30  0.25  0.16  0.15  0.09  0.06  0.00  0.00  0.00
 2017 344   103   102  24.2 0.351  0.35 2.650  0.00 2.636 2.451 179.6     0 88.68 13.49  1.17 0.293  0.29  0.23  0.16  0.14  0.09  0.06  0.00  0.00  0.00
 2017 345   104   103  23.8 0.353  0.35 2.666  0.00 2.650 2.459 179.6     0 90.85 13.54  1.18 0.295  0.29  0.24  0.16  0.14  0.09  0.06  0.00  0.00  0.00
 2017 346   105   104  25.1 0.355  0.36 2.678  0.00 2.665 2.464 179.6     0 93.00 13.58  1.19 0.306  0.30  0.24  0.16  0.15  0.09  0.06  0.00  0.00  0.00
 2017 347   106   105  24.9 0.357  0.36 2.696  0.00 2.678 2.471 179.6     0 95.17 13.62  1.20 0.332  0.32  0.26  0.18  0.16  0.10  0.07  0.00  0.00  0.00
 2017 348   107   106  24.8 0.359  0.36 2.715  0.00 2.696 2.478 179.6     0 97.42 13.66  1.21 0.352  0.34  0.28  0.19  0.17  0.11  0.07  0.00  0.00  0.00
[...]
 2020  88   280   279  29.1 0.737  0.74 4.772  4.38 0.390 4.086 179.6  1009 685.9 19.82  2.00 0.242  0.23  0.20  0.16  0.16  0.13  0.13  0.03  0.02  0.00
 2020  89   281   280  28.0 0.739  0.74 4.778  4.41 0.367 4.094 179.6  1015 689.1 19.87  2.00 0.243  0.23  0.20  0.16  0.16  0.13  0.13  0.03  0.02  0.00
 2020  90   282   281  28.6 0.742  0.74 4.783  4.43 0.347 4.102 179.6  1020 692.3 19.93  2.00 0.244  0.23  0.20  0.16  0.16  0.13  0.12  0.03  0.02  0.00
 2020  91   283   282  25.6 0.744  0.74 4.791  4.45 0.334 4.112 179.6  1025 695.4 19.99  2.00 0.244  0.23  0.20  0.16  0.16  0.13  0.12  0.03  0.02  0.00
 2020  92   284   283  26.5 0.747  0.75 4.806  4.47 0.324 4.129 179.6  1029 698.6 20.04  2.00 0.246  0.23  0.20  0.16  0.16  0.12  0.12  0.03  0.02  0.00
 2020  93   285   284  26.0 0.751  0.75 4.817  4.48 0.320 4.141 179.6  1033 701.8 20.10  2.00 0.247  0.23  0.20  0.16  0.16  0.12  0.12  0.03  0.02  0.00
 2020  94   286   285  27.5 0.755  0.75 4.831  4.50 0.315 4.161 179.6  1037 704.9 20.15  2.00 0.248  0.23  0.20  0.16  0.16  0.12  0.12  0.03  0.02  0.00
 2020  95   287   286  27.7 0.758  0.76 4.851  4.52 0.312 4.181 179.6  1041 707.9 20.18  2.00 0.249  0.23  0.20  0.16  0.16  0.12  0.12  0.03  0.02  0.00
 2020  96   288   287  27.4 0.761  0.76 4.871  4.54 0.311 4.200 179.6  1045 711.0 20.22  2.00 0.250  0.23  0.20  0.16  0.16  0.12  0.12  0.03  0.02  0.00
 2020  97   289   288  27.4 0.764  0.76 4.889  4.55 0.318 4.218 179.6  1049 714.1 20.27  2.00 0.252  0.23  0.21  0.16  0.16  0.12  0.12  0.03  0.02  0.00
 2020  98   290   289  25.9 0.768  0.77 4.911  4.57 0.321 4.240 179.6  1052 717.3 20.31  2.00 0.253  0.23  0.21  0.16  0.16  0.12  0.12  0.03  0.02  0.00
 2020  99   291   290  25.3 0.772  0.77 4.930  4.58 0.329 4.262 179.6  1055 720.4 20.36  2.00 0.254  0.23  0.21  0.16  0.16  0.12  0.12  0.03  0.02  0.00
 2020 100   292   291  24.2 0.776  0.78 4.949  4.59 0.337 4.283 179.6  1058 723.3 20.40  2.00 0.256  0.23  0.21  0.16  0.16  0.12  0.12  0.03  0.02  0.00
 2020 101   293   292  25.2 0.781  0.78 4.967  4.60 0.344 4.306 179.6  1060 726.0 20.43  2.00 0.257  0.24  0.21  0.16  0.16  0.12  0.12  0.03  0.02  0.00
 2020 102   294   293  24.9 0.785  0.79 4.983  4.61 0.353 4.328 179.6  1062 728.7 20.47  2.00 0.258  0.24  0.21  0.16  0.16  0.12  0.11  0.03  0.02  0.00
 2020 103   295   294  24.5 0.790  0.79 4.995  4.62 0.360 4.346 179.6  1064 731.4 20.52  2.00 0.258  0.24  0.21  0.16  0.16  0.12  0.12  0.03  0.02  0.00
 2020 104   296   295  25.5 0.794  0.79 5.010  4.63 0.366 4.369 179.6  1066 734.2 20.58  2.00 0.259  0.24  0.21  0.16  0.16  0.12  0.12  0.03  0.02  0.00
 2020 105   297   296  25.5 0.799  0.80 5.020  4.64 0.372 4.388 179.6  1067 737.2 20.65  2.00 0.259  0.24  0.21  0.16  0.16  0.12  0.12  0.03  0.02  0.00
 2020 106   298   297  26.0 0.803  0.80 5.032  4.64 0.376 4.413 179.6  1069 740.3 20.73  2.00 0.260  0.24  0.21  0.16  0.16  0.12  0.12  0.03  0.02  0.00
 2020 107   299   298  27.2 0.807  0.81 5.040  4.65 0.381 4.434 179.6  1070 743.5 20.82  2.00 0.259  0.24  0.21  0.16  0.16  0.12  0.11  0.03  0.02  0.00
 2020 108   300   299  26.8 0.811  0.81 5.048  4.65 0.385 4.455 179.6  1071 746.7 20.92  2.00 0.259  0.24  0.21  0.16  0.16  0.12  0.11  0.02  0.02  0.00
 2020 109   301   300  25.8 0.815  0.82 5.056  4.66 0.387 4.474 179.6  1073 749.9 21.01  2.00 0.259  0.24  0.21  0.16  0.16  0.12  0.11  0.02  0.02  0.00
 2020 110   302   301  27.7 0.820  0.82 5.063  4.66 0.391 4.496 179.6  1074 753.0 21.11  2.00 0.259  0.24  0.21  0.16  0.16  0.12  0.11  0.02  0.02  0.00
 2020 111   303   302  27.2 0.824  0.82 5.072  4.67 0.396 4.518 179.6  1074 756.2 21.21  2.00 0.259  0.24  0.21  0.16  0.16  0.12  0.11  0.02  0.02  0.00
 2020 112   304   303  27.2 0.828  0.83 5.079  4.67 0.397 4.539 179.6  1076 759.4 21.30  2.00 0.259  0.24  0.21  0.16  0.16  0.12  0.11  0.02  0.02  0.00
 2020 113   305   304  27.1 0.831  0.83 5.086  4.68 0.403 4.560 179.6  1076 762.5 21.40  2.00 0.259  0.24  0.21  0.16  0.16  0.12  0.11  0.02  0.02  0.00
 2020 114   306   305  27.7 0.835  0.84 5.094  4.68 0.407 4.582 179.6  1077 765.6 21.51  2.00 0.259  0.24  0.21  0.16  0.16  0.12  0.11  0.02  0.02  0.00
 2020 115   307   306  27.1 0.839  0.84 5.101  4.68 0.411 4.603 179.6  1078 768.8 21.61  2.00 0.258  0.23  0.21  0.16  0.16  0.12  0.11  0.02  0.02  0.00
 2020 116   308   307  27.8 0.843  0.84 5.110  4.69 0.416 4.625 179.6  1078 771.9 21.71  2.00 0.258  0.23  0.21  0.16  0.16  0.12  0.11  0.02  0.02  0.00
 2020 117   309   308  26.5 0.847  0.85 5.117  4.69 0.420 4.646 179.6  1079 775.0 21.81  2.00 0.258  0.23  0.21  0.16  0.16  0.12  0.11  0.02  0.02  0.00
 2020 118   310   309  25.3 0.851  0.85 5.124  4.69 0.426 4.664 179.6  1080 778.2 21.91  2.00 0.258  0.23  0.21  0.16  0.16  0.12  0.11  0.02  0.02  0.00
 2020 119   311   310  26.2 0.856  0.86 5.131  4.69 0.430 4.684 179.6  1080 781.2 22.01  2.00 0.258  0.23  0.20  0.16  0.16  0.12  0.11  0.02  0.02  0.00
 2020 120   312   311  26.0 0.860  0.86 5.137  4.70 0.434 4.704 179.6  1081 784.1 22.11  2.00 0.258  0.23  0.20  0.16  0.16  0.12  0.11  0.02  0.02  0.00
 2020 121   313   312  25.5 0.864  0.86 5.145  4.70 0.441 4.723 179.6  1081 786.9 22.20  2.00 0.258  0.23  0.20  0.16  0.15  0.12  0.11  0.02  0.02  0.00
 2020 122   314   313  25.7 0.869  0.87 5.151  4.70 0.446 4.742 179.6  1081 789.6 22.28  2.00 0.258  0.23  0.20  0.16  0.15  0.12  0.11  0.02  0.02  0.00
 2020 123   315   314  25.7 0.873  0.87 5.158  4.70 0.451 4.761 179.6  1082 792.3 22.36  2.00 0.258  0.23  0.20  0.16  0.15  0.12  0.11  0.02  0.02  0.00
 2020 124   316   315  25.8 0.878  0.88 5.165  4.70 0.455 4.780 179.6  1082 795.0 22.45  2.00 0.258  0.23  0.20  0.16  0.15  0.12  0.11  0.02  0.02  0.00
 2020 125   317   316  25.5 0.882  0.88 5.172  4.71 0.460 4.799 179.6  1083 797.7 22.53  2.00 0.258  0.23  0.20  0.16  0.15  0.12  0.11  0.02  0.02  0.00
 2020 126   318   317  27.3 0.886  0.89 5.179  4.71 0.464 4.821 179.6  1083 800.5 22.62  2.00 0.258  0.23  0.20  0.16  0.15  0.12  0.11  0.02  0.02  0.00
 2020 127   319   318  27.0 0.890  0.89 5.186  4.71 0.470 4.841 179.6  1083 803.5 22.72  2.00 0.258  0.23  0.20  0.16  0.15  0.12  0.11  0.02  0.02  0.00
 2020 128   320   319  27.7 0.894  0.89 5.192  4.71 0.477 4.863 179.6  1083 806.5 22.84  2.00 0.257  0.23  0.20  0.16  0.15  0.12  0.11  0.02  0.02  0.00
 2020 129   321   320  27.7 0.898  0.90 5.200  4.71 0.482 4.885 179.6  1084 809.6 22.94  2.00 0.257  0.23  0.20  0.15  0.15  0.12  0.11  0.02  0.02  0.00
 2020 130   322   321  26.5 0.902  0.90 5.205  4.71 0.486 4.901 179.6  1084 812.7 23.06  2.00 0.257  0.23  0.20  0.15  0.15  0.12  0.11  0.02  0.02  0.00
 2020 131   323   322  26.3 0.906  0.91 5.213  4.72 0.490 4.921 179.6  1085 815.7 23.16  2.00 0.257  0.23  0.20  0.15  0.15  0.12  0.11  0.02  0.02  0.00
 2020 132   324   323  25.8 0.910  0.91 5.217  4.72 0.494 4.935 179.6  1085 818.8 23.28  2.00 0.256  0.23  0.20  0.15  0.15  0.12  0.11  0.02  0.02  0.00
 2020 133   325   324  26.2 0.915  0.91 5.225  4.72 0.498 4.955 179.6  1086 821.8 23.38  2.00 0.256  0.23  0.20  0.15  0.15  0.12  0.11  0.02  0.02  0.00
 2020 134   326   325  27.4 0.919  0.92 5.230  4.72 0.505 4.971 179.6  1086 824.7 23.50  2.00 0.256  0.23  0.20  0.15  0.15  0.12  0.11  0.02  0.02  0.00
 2020 135   327   326  27.2 0.923  0.92 5.236  4.72 0.511 4.993 179.6  1086 827.8 23.62  2.00 0.255  0.23  0.20  0.15  0.15  0.12  0.11  0.02  0.02  0.00
 2020 136   328   327  26.2 0.927  0.93 5.242  4.72 0.517 5.012 179.6  1086 830.8 23.73  2.00 0.255  0.23  0.20  0.15  0.15  0.12  0.11  0.02  0.02  0.00
 2020 137   329   328  26.0 0.931  0.93 5.248  4.72 0.523 5.032 179.6  1086 833.8 23.85  2.00 0.255  0.23  0.20  0.15  0.15  0.12  0.11  0.02  0.02  0.00
 2020 138   330   329  25.9 0.935  0.94 5.254  4.72 0.528 5.052 179.6  1086 836.8 23.96  2.00 0.254  0.23  0.20  0.15  0.15  0.12  0.11  0.02  0.02  0.00
 2020 139   331   330  26.7 0.940  0.94 5.260  4.72 0.532 5.072 179.6  1087 839.7 24.07  2.00 0.254  0.23  0.20  0.15  0.15  0.12  0.11  0.02  0.02  0.00
 2020 140   332   331  26.2 0.944  0.94 5.266  4.72 0.536 5.092 179.6  1087 842.5 24.17  2.00 0.254  0.23  0.20  0.15  0.15  0.12  0.11  0.02  0.02  0.00
 2020 141   333   332  25.8 0.948  0.95 5.272  4.73 0.539 5.111 179.6  1088 845.3 24.27  2.00 0.254  0.23  0.20  0.15  0.15  0.12  0.11  0.02  0.02  0.00
 2020 142   334   333  25.4 0.952  0.95 5.278  4.73 0.543 5.130 179.6  1088 848.0 24.37  2.00 0.254  0.23  0.20  0.15  0.15  0.12  0.11  0.02  0.02  0.00
 2020 143   335   334  26.0 0.957  0.96 5.286  4.73 0.547 5.150 179.6  1089 850.8 24.47  2.00 0.253  0.23  0.20  0.15  0.15  0.11  0.11  0.02  0.02  0.00
 2020 144   336   335  25.3 0.961  0.96 5.290  4.73 0.553 5.164 179.6  1089 853.6 24.58  2.00 0.253  0.23  0.20  0.15  0.15  0.11  0.11  0.02  0.02  0.00
 2020 145   337   336  24.7 0.966  0.97 5.297  4.73 0.559 5.181 179.6  1089 856.2 24.68  2.00 0.253  0.23  0.20  0.15  0.15  0.11  0.11  0.02  0.02  0.00
 2020 146   338   337  25.0 0.970  0.97 5.301  4.73 0.565 5.195 179.6  1089 858.9 24.78  2.00 0.253  0.23  0.20  0.15  0.15  0.11  0.11  0.02  0.02  0.00
 2020 147   339   338  25.6 0.975  0.97 5.308  4.73 0.570 5.214 179.6  1089 861.5 24.87  2.00 0.253  0.23  0.20  0.15  0.15  0.11  0.11  0.02  0.02  0.00
 2020 148   340   339  25.3 0.979  0.98 5.312  4.73 0.576 5.228 179.6  1089 864.0 24.97  2.00 0.253  0.23  0.20  0.15  0.15  0.11  0.11  0.02  0.02  0.00
 2020 149   341   340  25.9 0.984  0.98 5.318  4.73 0.581 5.247 179.6  1089 866.5 25.06  2.00 0.253  0.23  0.20  0.15  0.15  0.11  0.11  0.02  0.02  0.00
 2020 150   342   341  26.7 0.988  0.99 5.322  4.73 0.585 5.263 179.6  1089 869.1 25.16  2.00 0.252  0.23  0.20  0.15  0.15  0.11  0.11  0.02  0.02  0.00
 2020 151   343   342  26.0     1  0.99 5.328  4.73 0.588 5.283 179.6  1089 871.8 25.26  2.00 0.252  0.23  0.20  0.15  0.15  0.11  0.11  0.02  0.02  0.00
 2020 152   344   343  26.0     1  1.00 5.332  4.74 0.591 5.297 179.6  1090 874.5 25.36  2.00 0.252  0.23  0.19  0.15  0.15  0.11  0.11  0.02  0.02  0.00
 2020 153   345   344  25.6 1.001  1.00 5.338  4.74 0.593 5.316 179.6  1090 877.2 25.47  2.00 0.252  0.23  0.19  0.15  0.15  0.11  0.11  0.02  0.02  0.00
 2020 154   346   345  26.5 1.005  1.00 5.342  4.74 0.597 5.324 179.6  1091 879.9 25.58  2.00 0.251  0.22  0.19  0.15  0.15  0.11  0.11  0.02  0.02  0.00
 2020 155   347   346  26.5 1.008  1.01 5.346  4.74 0.600 5.332 179.6  1091 882.6 25.69  2.00 0.251  0.22  0.19  0.15  0.15  0.11  0.11  0.02  0.02  0.00
 2020 156   348   347  25.2 1.011  1.01 5.355  4.74 0.604 5.339 179.6  1091 885.3 25.79  2.00 0.251  0.22  0.19  0.15  0.15  0.11  0.11  0.02  0.02  0.00
 2020 157   349   348  25.9 1.015  1.02 5.361  4.74 0.610 5.346 179.6  1091 888.0 25.89  2.00 0.251  0.22  0.19  0.15  0.14  0.11  0.11  0.02  0.02  0.00
 2020 158   350   349  25.0 1.019  1.02 5.371  4.74 0.619 5.353 179.6  1091 890.6 25.98  2.00 0.251  0.22  0.19  0.15  0.14  0.11  0.11  0.02  0.02  0.00
 2020 159   351   350  26.5 1.022  1.02 5.379  4.74 0.627 5.360 179.6  1091 893.2 26.08  2.00 0.251  0.22  0.19  0.15  0.14  0.11  0.11  0.02  0.02  0.00
 2020 160   352   351  27.0 1.026  1.03 5.391  4.74 0.637 5.368 179.6  1091 895.9 26.17  2.00 0.251  0.22  0.19  0.15  0.14  0.11  0.11  0.02  0.02  0.00
 2020 161   353   352  24.4 1.029  1.03 5.401  4.74 0.647 5.375 179.6  1091 898.5 26.26  2.00 0.251  0.22  0.19  0.15  0.14  0.11  0.11  0.02  0.02  0.00
 2020 162   354   353  24.5 1.032  1.03 5.414  4.74 0.658 5.383 179.6  1091 901.1 26.34  2.00 0.251  0.22  0.19  0.15  0.14  0.11  0.11  0.02  0.02  0.00
 2020 163   355   354  24.8 1.036  1.04 5.430  4.74 0.671 5.392 179.6  1091 903.7 26.40  2.00 0.251  0.22  0.19  0.15  0.14  0.11  0.11  0.02  0.02  0.00
 2020 164   356   355  25.9 1.040  1.04 5.440  4.74 0.685 5.400 179.6  1091 906.2 26.49  2.00 0.251  0.22  0.19  0.15  0.14  0.11  0.11  0.02  0.02  0.00
 2020 165   357   356  24.2 1.043  1.04 5.451  4.74 0.697 5.406 179.6  1091 908.6 26.56  2.00 0.252  0.22  0.19  0.15  0.14  0.11  0.11  0.02  0.02  0.00
 2020 166   358   357  25.7 1.047  1.05 5.461  4.74 0.707 5.413 179.6  1091 911.1 26.64  2.00 0.252  0.22  0.19  0.15  0.14  0.11  0.11  0.02  0.02  0.00
 2020 167   359   358  25.6 1.050  1.05 5.471  4.74 0.718 5.420 179.6  1091 913.6 26.72  2.00 0.252  0.22  0.19  0.15  0.14  0.11  0.11  0.02  0.02  0.00
 2020 168   360   359  25.9 1.054  1.05 5.480  4.74 0.726 5.428 179.6  1092 916.2 26.81  2.00 0.252  0.22  0.19  0.15  0.14  0.11  0.11  0.02  0.02  0.00
 2020 169   361   360  25.3 1.057  1.06 5.489  4.75 0.732 5.435 179.6  1092 918.7 26.89  2.00 0.252  0.22  0.19  0.15  0.14  0.11  0.11  0.02  0.02  0.00
 2020 170   362   361  24.1 1.061  1.06 5.501  4.75 0.740 5.441 179.6  1093 921.2 26.97  2.00 0.252  0.22  0.19  0.15  0.14  0.11  0.11  0.02  0.02  0.00
 2020 171   363   362  24.3 1.065  1.06 5.510  4.75 0.746 5.447 179.6  1093 923.7 27.04  2.00 0.252  0.22  0.19  0.14  0.14  0.11  0.11  0.02  0.02  0.00
 2020 172   364   363  25.5 1.068  1.07 5.520  4.76 0.755 5.455 179.6  1094 926.1 27.12  2.00 0.252  0.22  0.19  0.14  0.14  0.11  0.11  0.02  0.02  0.00
 2020 173   365   364  25.4 1.072  1.07 5.529  4.76 0.763 5.462 179.6  1094 928.6 27.20  2.00 0.252  0.22  0.19  0.14  0.14  0.11  0.11  0.02  0.02  0.00
 2020 174   366   365  24.5 1.075  1.08 5.538  4.76 0.772 5.468 179.6  1094 931.0 27.28  2.00 0.252  0.22  0.19  0.14  0.14  0.11  0.11  0.02  0.02  0.00
 2020 175   367   366  24.9 1.079  1.08 5.549  4.76 0.781 5.475 179.6  1094 933.5 27.36  2.00 0.253  0.22  0.19  0.14  0.14  0.11  0.11  0.02  0.02  0.00
 2020 176   368   367  25.8 1.083  1.08 5.558  4.76 0.791 5.482 179.6  1094 936.1 27.46  2.00 0.252  0.22  0.19  0.14  0.14  0.11  0.11  0.02  0.02  0.00
 2020 177   369   368  25.5 1.086  1.09 5.571  4.76 0.802 5.492 179.6  1094 938.7 27.54  2.00 0.253  0.22  0.19  0.14  0.14  0.11  0.11  0.02  0.02  0.00
 2020 178   370   369  25.0 1.090  1.09 5.580  4.76 0.814 5.498 179.6  1094 941.2 27.64  2.00 0.253  0.22  0.19  0.14  0.14  0.11  0.11  0.02  0.02  0.00
 2020 179   371   370  24.3 1.093  1.09 5.586  4.76 0.823 5.503 179.6  1094 943.7 27.74  2.00 0.252  0.22  0.19  0.14  0.14  0.11  0.11  0.02  0.02  0.00
 2020 180   372   371  24.0 1.097  1.10 5.596  4.76 0.829 5.509 179.6  1094 946.2 27.82  2.00 0.252  0.22  0.19  0.14  0.14  0.11  0.11  0.02  0.02  0.00
 2020 181   373   372  24.3 1.101  1.10 5.605  4.76 0.838 5.516 179.6  1094 948.5 27.90  2.00 0.252  0.22  0.19  0.14  0.14  0.11  0.11  0.02  0.02  0.00
 2020 182   374   373  24.9 1.104  1.10 5.617  4.76 0.848 5.525 179.6  1094 950.8 27.97  2.00 0.253  0.22  0.19  0.14  0.14  0.11  0.11  0.02  0.02  0.00
 2020 183   375   374  25.0 1.108  1.11 5.628  4.76 0.860 5.531 179.6  1094 953.1 28.04  2.00 0.253  0.22  0.19  0.14  0.14  0.11  0.11  0.02  0.02  0.00
 2020 184   376   375  25.4 1.112  1.11 5.636  4.76 0.869 5.538 179.6  1094 955.5 28.13  2.00 0.253  0.22  0.19  0.14  0.14  0.11  0.11  0.02  0.02  0.00
 2020 185   377   376  25.4 1.115  1.12 5.645  4.76 0.879 5.545 179.6  1094 958.0 28.22  2.00 0.253  0.22  0.19  0.14  0.14  0.11  0.10  0.02  0.02  0.00
 2020 186   378   377  23.7 1.119  1.12 5.653  4.76 0.888 5.552 179.6  1094 960.4 28.31  2.00 0.253  0.22  0.19  0.14  0.14  0.11  0.10  0.02  0.02  0.00
 2020 187   379   378  23.7 1.122  1.12 5.661  4.76 0.896 5.558 179.6  1094 962.8 28.40  2.00 0.253  0.22  0.19  0.14  0.14  0.11  0.10  0.02  0.02  0.00
 2020 188   380   379  24.5 1.126  1.13 5.670  4.76 0.905 5.564 179.6  1094 965.2 28.48  2.00 0.253  0.22  0.19  0.14  0.14  0.11  0.10  0.02  0.02  0.00
 2020 189   381   380  24.2 1.130  1.13 5.679  4.76 0.913 5.571 179.6  1094 967.5 28.56  2.00 0.253  0.22  0.19  0.14  0.14  0.11  0.10  0.02  0.02  0.00
 2020 190   382   381  24.6 1.133  1.13 5.685  4.76 0.922 5.575 179.6  1094 969.7 28.64  2.00 0.253  0.22  0.19  0.14  0.14  0.11  0.10  0.02  0.02  0.00
 2020 191   383   382  24.7 1.137  1.14 5.694  4.76 0.928 5.582 179.6  1094 972.0 28.72  2.00 0.253  0.22  0.19  0.14  0.14  0.11  0.10  0.02  0.02  0.00
 2020 192   384   383  23.2 1.141  1.14 5.699  4.76 0.936 5.588 179.6  1094 974.3 28.82  2.00 0.253  0.22  0.19  0.14  0.14  0.11  0.10  0.02  0.02  0.00
 2020 193   385   384  24.1 1.144  1.14 5.708  4.76 0.943 5.594 179.6  1094 976.5 28.89  2.00 0.253  0.22  0.19  0.14  0.14  0.11  0.10  0.02  0.02  0.00
 2020 194   386   385  23.6 1.148  1.15 5.716  4.76 0.951 5.600 179.6  1094 978.7 28.97  2.00 0.253  0.22  0.19  0.14  0.14  0.11  0.10  0.02  0.02  0.00
 2020 195   387   386  24.0 1.152  1.15 5.725  4.76 0.957 5.606 179.6  1095 980.9 29.03  2.00 0.253  0.22  0.19  0.14  0.14  0.11  0.10  0.02  0.02  0.00
 2020 196   388   387  23.3 1.155  1.16 5.732  4.76 0.964 5.614 179.6  1095 983.0 29.10  2.00 0.253  0.22  0.19  0.14  0.14  0.11  0.10  0.02  0.02  0.00
 2020 197   389   388  23.5 1.159  1.16 5.740  4.76 0.970 5.620 179.6  1095 985.1 29.17  2.00 0.253  0.22  0.19  0.14  0.14  0.11  0.10  0.02  0.02  0.00
 2020 198   390   389  23.1 1.163  1.16 5.747  4.76 0.976 5.626 179.6  1096 987.2 29.25  2.00 0.253  0.22  0.19  0.14  0.14  0.11  0.10  0.02  0.02  0.00
 2020 199   391   390  22.5 1.166  1.17 5.752  4.77 0.981 5.632 179.6  1096 989.3 29.34  2.00 0.253  0.22  0.19  0.14  0.14  0.11  0.10  0.02  0.02  0.00
 2020 200   392   391  22.9 1.170  1.17 5.758  4.77 0.984 5.637 179.6  1097 991.4 29.41  2.00 0.252  0.22  0.19  0.14  0.14  0.11  0.10  0.02  0.02  0.00
 2020 201   393   392  23.4 1.174  1.17 5.766  4.77     1 5.643 179.6  1097 993.5 29.48  2.00 0.253  0.22  0.19  0.14  0.14  0.11  0.10  0.02  0.02  0.00
 2020 202   394   393  23.4 1.177  1.18 5.771  4.77     1 5.647 179.6  1097 995.5 29.57  2.00 0.252  0.22  0.19  0.14  0.14  0.11  0.10  0.02  0.02  0.00
 2020 203   395   394  23.1 1.181  1.18 5.778  4.77 1.004 5.653 179.6  1097 997.6 29.64  2.00 0.252  0.22  0.19  0.14  0.14  0.11  0.10  0.02  0.02  0.00
 2020 204   396   395  23.5 1.185  1.18 5.786  4.77 1.011 5.659 179.6  1097 999.7 29.72  2.00 0.252  0.22  0.19  0.14  0.14  0.11  0.10  0.02  0.02  0.00
 2020 205   397   396  23.1 1.188  1.19 5.791  4.77 1.017 5.663 179.6  1097  1002 29.81  2.00 0.252  0.22  0.19  0.14  0.14  0.11  0.10  0.02  0.02  0.00
 2020 206   398   397  22.8 1.192  1.19 5.797  4.77 1.023 5.669 179.6  1097  1004 29.89  2.00 0.252  0.22  0.19  0.14  0.14  0.11  0.10  0.02  0.02  0.00
 2020 207   399   398  24.0 1.195  1.20 5.806  4.77 1.030 5.675 179.6  1097  1006 29.96  2.00 0.252  0.22  0.19  0.14  0.14  0.11  0.10  0.02  0.02  0.00
 2020 208   400   399  24.2 1.199  1.20 5.814  4.77 1.037 5.681 179.6  1097  1008 30.03  2.00 0.252  0.22  0.19  0.14  0.14  0.11  0.10  0.02  0.02  0.00
 2020 209   401   400  23.6 1.203  1.20 5.821  4.77 1.046 5.687 179.6  1097  1010 30.11  2.00 0.252  0.22  0.19  0.14  0.14  0.11  0.10  0.02  0.02  0.00
 2020 210   402   401  24.2 1.206  1.21 5.829  4.77 1.053 5.694 179.6  1097  1012 30.18  2.00 0.252  0.22  0.19  0.14  0.14  0.11  0.10  0.02  0.02  0.00
 2020 211   403   402  24.0 1.210  1.21 5.834  4.77 1.061 5.698 179.6  1097  1015 30.28  2.00 0.252  0.22  0.19  0.14  0.14  0.11  0.10  0.02  0.02  0.00
 2020 212   404   403  23.6 1.214  1.21 5.839  4.77 1.066 5.702 179.6  1097  1017 30.37  2.00 0.252  0.22  0.19  0.14  0.14  0.11  0.10  0.02  0.02  0.00
 2020 213   405   404  22.8 1.217  1.22 5.844  4.77 1.072 5.708 179.6  1097  1019 30.47  2.00 0.252  0.22  0.19  0.14  0.14  0.11  0.10  0.02  0.02  0.00
 2020 214   406   405  23.6 1.221  1.22 5.851  4.77 1.077 5.712 179.6  1097  1021 30.55  2.00 0.251  0.22  0.19  0.14  0.14  0.11  0.10  0.02  0.02  0.00
 2020 215   407   406  24.0 1.225  1.22 5.856  4.77 1.081 5.716 179.6  1097  1023 30.64  2.00 0.251  0.22  0.19  0.14  0.14  0.11  0.10  0.02  0.02  0.00
 2020 216   408   407  22.7 1.228  1.23 5.861  4.77 1.089 5.722 179.6  1097  1025 30.73  2.00 0.251  0.22  0.19  0.14  0.14  0.11  0.10  0.02  0.02  0.00
