$GROWTH ASPECTS SECONDARY OUTPUTS FILE

*DSSAT Cropping System Model Ver. 4.8.0.019 -develop  JAN 07, 2022 20:10:05

*RUN   1        : TMEB419                   CSYCA048 UYAB1901    5
 MODEL          : CSYCA048 - Cassava
 EXPERIMENT     : UYAB1901 CS UYT_GXE
 DATA PATH      :
 TREATMENT  5   : TMEB419                   CSYCA048
  
@YEAR DOY   DAS   DAP TMEAN  GSTD  RSTD LAIPD LAISD  LAID  CHTD SDWAD SNWLD SNWSD SHRTD  RDPD  RL1D  RL2D  RL3D  RL4D  RL5D  RL6D  RL7D  RL8D  RL9D RL10D
 2019 169     0     0  28.9     0  0.00     0  0.00     0     0 450.0     0     0  0.00  0.20 0.000  0.00  0.00  0.00  0.00  0.00  0.00  0.00  0.00  0.00
 2019 170     1     1  29.0     0  0.00     0  0.00     0     0 450.0     0     0  0.00  0.20 0.000  0.00  0.00  0.00  0.00  0.00  0.00  0.00  0.00  0.00
 2019 171     2     2  26.7     0  0.00     0  0.00     0     0 450.0     0     0  0.00  0.20 0.000  0.00  0.00  0.00  0.00  0.00  0.00  0.00  0.00  0.00
 2019 172     3     3  27.7     0  0.00     0  0.00     0     0 450.0     0     0  0.00  0.20 0.000  0.00  0.00  0.00  0.00  0.00  0.00  0.00  0.00  0.00
 2019 173     4     4  25.8     0  0.00     0  0.00     0     0 450.0     0     0  0.00  0.20 0.000  0.00  0.00  0.00  0.00  0.00  0.00  0.00  0.00  0.00
 2019 174     5     5  27.6     0  0.00     0  0.00     0     0 450.0     0     0  0.00  0.20 0.000  0.00  0.00  0.00  0.00  0.00  0.00  0.00  0.00  0.00
 2019 175     6     6  24.4     0  0.00     0  0.00     0     0 450.0     0     0  0.00  0.20 0.000  0.00  0.00  0.00  0.00  0.00  0.00  0.00  0.00  0.00
 2019 176     7     7  26.4     0  0.00     0  0.00     0     0 450.0     0     0  0.00  0.20 0.000  0.00  0.00  0.00  0.00  0.00  0.00  0.00  0.00  0.00
 2019 177     8     8  25.0     0  0.00     0  0.00     0     0 442.6     0     0  0.00  0.21 0.000  0.00  0.00  0.00  0.00  0.00  0.00  0.00  0.00  0.00
 2019 178     9     9  25.0 .0084  0.01     0  0.00     0     0 442.6     0     0  0.00  0.22 0.000  0.00  0.00  0.00  0.00  0.00  0.00  0.00  0.00  0.00
 2019 179    10    10  26.4 .0168  0.02     0  0.00     0     0 442.6     0     0  0.00  0.24 0.000  0.00  0.00  0.00  0.00  0.00  0.00  0.00  0.00  0.00
 2019 180    11    11  27.3 .0246  0.02     0  0.00     0     0 442.6     0     0  0.00  0.25 0.000  0.00  0.00  0.00  0.00  0.00  0.00  0.00  0.00  0.00
 2019 181    12    12  27.4 .0319  0.03 .0045  0.00     0 .0035 436.4     0     0783.00  0.26 0.001  0.00  0.00  0.00  0.00  0.00  0.00  0.00  0.00  0.00
 2019 182    13    13  25.8 .0392  0.04 .0104  0.00 .0045 .0099 428.7     0 .0044351.81  0.27 0.003  0.00  0.00  0.00  0.00  0.00  0.00  0.00  0.00  0.00
 2019 183    14    14  26.5 .0472  0.05 .0224  0.00 .0104 .0232 417.0     0 .0143184.12  0.29 0.005  0.00  0.00  0.00  0.00  0.00  0.00  0.00  0.00  0.00
 2019 184    15    15  26.8 .0549  0.05 .0382  0.00 .0224 .0402 403.1     0 .0333116.59  0.30 0.008  0.01  0.01  0.01  0.00  0.00  0.00  0.00  0.00  0.00
 2019 185    16    16  26.8 .0625  0.06 .0553  0.00 .0382 .0605 389.6     0 .0630 83.81  0.31 0.011  0.01  0.01  0.01  0.01  0.00  0.00  0.00  0.00  0.00
 2019 186    17    17  25.7 .0701  0.07 .0796  0.00 .0553 .0858 373.1     0 0.104 61.04  0.33 0.015  0.01  0.01  0.01  0.01  0.00  0.00  0.00  0.00  0.00
 2019 187    18    18  27.2 .0781  0.08 0.108  0.00 .0796 0.117 355.7     0 0.161 47.26  0.34 0.020  0.02  0.01  0.01  0.01  0.00  0.00  0.00  0.00  0.00
 2019 188    19    19  27.2 .0855  0.09 0.138  0.00 0.108 0.149 339.0     0 0.236 38.50  0.35 0.024  0.02  0.02  0.02  0.01  0.01  0.00  0.00  0.00  0.00
 2019 189    20    20  23.8 .0929  0.09 0.166  0.00 0.138 0.173 327.9     0 0.326 33.03  0.36 0.029  0.02  0.02  0.02  0.02  0.01  0.00  0.00  0.00  0.00
 2019 190    21    21  26.4 0.101  0.10 0.200  0.00 0.166 0.206 315.9     0 0.433 28.72  0.37 0.034  0.03  0.02  0.02  0.02  0.01  0.00  0.00  0.00  0.00
 2019 191    22    22  26.0 0.109  0.11 0.233  0.00 0.200 0.235 309.3     0 0.560 25.93  0.38 0.038  0.03  0.03  0.03  0.02  0.01  0.00  0.00  0.00  0.00
 2019 192    23    23  24.4 0.117  0.12 0.268  0.00 0.233 0.261 301.3     0 0.701 23.61  0.39 0.043  0.04  0.03  0.03  0.03  0.02  0.01  0.00  0.00  0.00
 2019 193    24    24  25.5 0.125  0.13 0.303  0.00 0.268 0.289 298.5     0 0.859 22.02  0.41 0.048  0.04  0.04  0.03  0.03  0.02  0.01  0.00  0.00  0.00
 2019 194    25    25  26.5 0.134  0.13 0.337  0.00 0.303 0.315 298.5     0 1.045 20.93  0.41 0.053  0.05  0.04  0.04  0.03  0.02  0.01  0.00  0.00  0.00
 2019 195    26    26  26.0 0.141  0.14 0.373  0.00 0.337 0.341 298.5     0 1.252 19.99  0.42 0.058  0.05  0.04  0.04  0.03  0.02  0.01  0.00  0.00  0.00
 2019 196    27    27  26.2 0.149  0.15 0.406  0.00 0.373 0.367 298.5     0 1.481 19.26  0.43 0.062  0.05  0.05  0.04  0.04  0.03  0.02  0.00  0.00  0.00
 2019 197    28    28  27.5 0.157  0.16 0.450  0.00 0.406 0.403 297.4     0 1.744 18.47  0.44 0.068  0.06  0.05  0.04  0.04  0.03  0.02  0.00  0.00  0.00
 2019 198    29    29  27.4 0.164  0.16 0.488  0.00 0.450 0.431 297.4     0 2.043 17.93  0.45 0.072  0.06  0.05  0.05  0.04  0.03  0.02  0.00  0.00  0.00
 2019 199    30    30  26.5 0.172  0.17 0.529  0.00 0.488 0.458 297.4     0 2.365 17.43  0.46 0.077  0.07  0.06  0.05  0.05  0.04  0.02  0.00  0.00  0.00
 2019 200    31    31  24.8 0.179  0.18 0.571  0.00 0.529 0.481 297.4     0 2.705 16.96  0.47 0.083  0.07  0.06  0.05  0.05  0.04  0.03  0.00  0.00  0.00
 2019 201    32    32  26.0 0.188  0.19 0.614  0.00 0.571 0.507 297.4     0 3.072 16.57  0.48 0.088  0.08  0.06  0.06  0.05  0.04  0.03  0.00  0.00  0.00
 2019 202    33    33  26.4 0.196  0.20 0.654  0.00 0.614 0.534 297.4     0 3.460 16.25  0.49 0.093  0.08  0.07  0.06  0.06  0.04  0.03  0.01  0.00  0.00
 2019 203    34    34  25.7 0.203  0.20 0.701  0.00 0.654 0.562 297.4     0 3.858 15.92  0.50 0.098  0.08  0.07  0.07  0.06  0.05  0.03  0.01  0.00  0.00
 2019 204    35    35  26.8 0.211  0.21 0.745  0.00 0.701 0.589 297.4     0 4.288 15.66  0.51 0.103  0.09  0.08  0.07  0.06  0.05  0.04  0.01  0.00  0.00
 2019 205    36    36  27.7 0.219  0.22 0.791  0.00 0.745 0.618 297.4     0 4.762 15.43  0.52 0.108  0.09  0.08  0.07  0.06  0.05  0.04  0.01  0.00  0.00
 2019 206    37    37  24.8 0.226  0.23 0.838  0.00 0.791 0.642 297.4     0 5.250 15.20  0.53 0.114  0.10  0.08  0.08  0.07  0.06  0.04  0.01  0.00  0.00
 2019 207    38    38  25.8 0.235  0.23 0.887  0.00 0.838 0.667 297.4     0 5.757 14.99  0.54 0.119  0.10  0.09  0.08  0.07  0.06  0.04  0.01  0.00  0.00
 2019 208    39    39  25.9 0.243  0.24 0.937  0.00 0.887 0.692 297.4     0 6.291 14.81  0.55 0.125  0.11  0.09  0.08  0.07  0.06  0.05  0.02  0.00  0.00
 2019 209    40    40  26.1 0.251  0.25 0.988  0.00 0.937 0.718 297.4     0 6.842 14.64  0.56 0.130  0.11  0.10  0.09  0.08  0.07  0.05  0.02  0.00  0.00
 2019 210    41    41  26.2 0.259  0.26 1.041  0.00 0.988 0.744 297.4     0 7.409 14.49  0.57 0.136  0.12  0.10  0.09  0.08  0.07  0.05  0.02  0.00  0.00
 2019 211    42    42  26.5 0.266  0.27 1.090  0.00 1.041 0.767 297.4     0 8.024 14.37  0.58 0.141  0.12  0.10  0.09  0.08  0.07  0.06  0.02  0.00  0.00
 2019 212    43    43  26.2 0.273  0.27 1.140  0.00 1.090 0.788 297.4     0 8.672 14.26  0.59 0.146  0.13  0.11  0.10  0.09  0.07  0.06  0.02  0.00  0.00
 2019 213    44    44  25.8 0.279  0.28 1.190  0.00 1.140 0.808 297.4     0 9.350 14.16  0.60 0.148  0.13  0.11  0.10  0.09  0.08  0.06  0.03  0.00  0.00
 2019 214    45    45  25.1 0.287  0.29 1.241  0.00 1.190 0.829 297.4     0 10.05 14.07  0.61 0.153  0.14  0.12  0.10  0.09  0.08  0.06  0.03  0.00  0.00
 2019 215    46    46  25.8 0.296  0.30 1.292  0.00 1.241 0.851 297.4     0 10.78 13.98  0.62 0.159  0.14  0.12  0.11  0.10  0.08  0.07  0.03  0.00  0.00
 2019 216    47    47  26.0 0.304  0.30 1.344  0.00 1.292 0.874 297.4     0 11.53 13.91  0.63 0.164  0.14  0.12  0.11  0.10  0.09  0.07  0.03  0.00  0.00
 2019 217    48    48  25.8 0.311  0.31 1.397  0.00 1.344 0.895 297.4     0 12.31 13.84  0.63 0.169  0.15  0.13  0.11  0.10  0.09  0.07  0.03  0.01  0.00
 2019 218    49    49  25.8 0.319  0.32 1.450  0.00 1.397 0.917 297.4     0 13.11 13.77  0.64 0.174  0.15  0.13  0.12  0.11  0.09  0.07  0.04  0.01  0.00
 2019 219    50    50  24.2 0.327  0.33 1.504  0.00 1.450 0.937 297.4     0 13.92 13.71  0.65 0.179  0.16  0.13  0.12  0.11  0.09  0.08  0.04  0.01  0.00
 2019 220    51    51  24.7 0.336  0.34 1.558  0.00 1.504 0.957 297.4     0 14.74 13.65  0.66 0.185  0.16  0.14  0.12  0.11  0.10  0.08  0.04  0.01  0.00
 2019 221    52    52  25.6 0.344  0.34 1.612  0.00 1.558 0.979 297.4     0 15.58 13.60  0.67 0.190  0.17  0.14  0.13  0.12  0.10  0.08  0.04  0.01  0.00
 2019 222    53    53  26.4 0.352  0.35 1.667  0.00 1.612 1.002 297.4     0 16.45 13.55  0.68 0.195  0.17  0.15  0.13  0.12  0.10  0.09  0.04  0.01  0.00
 2019 223    54    54  26.5 0.360  0.36 1.723  0.00 1.667 1.026 297.4     0 17.37 13.51  0.69 0.200  0.18  0.15  0.13  0.12  0.11  0.09  0.05  0.02  0.00
 2019 224    55    55  24.9 0.368  0.37 1.779  0.00 1.723 1.046 297.4     0 18.33 13.48  0.70 0.205  0.18  0.15  0.14  0.13  0.11  0.09  0.05  0.02  0.00
 2019 225    56    56  26.2 0.376  0.38 1.835  0.00 1.779 1.069 297.4     0 19.36 13.45  0.71 0.210  0.18  0.16  0.14  0.13  0.11  0.09  0.05  0.02  0.00
 2019 226    57    57  26.5 0.384  0.38 1.893  0.00 1.835 1.093 297.4     0 20.44 13.43  0.72 0.215  0.19  0.16  0.14  0.13  0.11  0.10  0.05  0.02  0.00
 2019 227    58    58  25.3 0.392  0.39 1.950  0.00 1.893 1.114 297.4     0 21.54 13.41  0.72 0.220  0.19  0.16  0.15  0.14  0.12  0.10  0.05  0.02  0.00
 2019 228    59    59  25.3 0.400  0.40 2.008  0.00 1.950 1.135 297.4     0 22.66 13.39  0.73 0.225  0.20  0.17  0.15  0.14  0.12  0.10  0.06  0.03  0.00
 2019 229    60    60  26.4 0.408  0.41 2.076  0.00 2.008 1.159 297.4     0 23.83 13.36  0.74 0.231  0.20  0.17  0.16  0.14  0.12  0.10  0.06  0.03  0.00
 2019 230    61    61  25.7 0.415  0.42 2.134  0.00 2.068 1.177 297.4     0 25.03 13.35  0.75 0.235  0.21  0.18  0.16  0.14  0.13  0.11  0.06  0.03  0.00
 2019 231    62    62  25.3 0.423  0.42 2.193  0.00 2.134 1.195 297.4     0 26.25 13.34  0.76 0.240  0.21  0.18  0.16  0.15  0.13  0.11  0.06  0.03  0.00
 2019 232    63    63  26.8 0.432  0.43 2.260  0.00 2.193 1.219 297.4     0 27.51 13.32  0.77 0.246  0.21  0.18  0.17  0.15  0.13  0.11  0.06  0.04  0.00
 2019 233    64    64  26.4 0.439  0.44 2.327  0.00 2.260 1.242 297.4     0 28.82 13.31  0.78 0.251  0.22  0.19  0.17  0.15  0.13  0.11  0.07  0.04  0.00
 2019 234    65    65  25.8 0.447  0.45 2.395  0.00 2.327 1.264 297.4     0 30.17 13.30  0.79 0.257  0.22  0.19  0.17  0.16  0.14  0.12  0.07  0.04  0.00
 2019 235    66    66  25.6 0.455  0.46 2.463  0.00 2.395 1.286 297.4     0 31.54 13.29  0.80 0.262  0.23  0.20  0.18  0.16  0.14  0.12  0.07  0.04  0.00
 2019 236    67    67  25.5 0.463  0.46 2.530  0.00 2.463 1.308 297.4     0 32.95 13.29  0.81 0.267  0.23  0.20  0.18  0.16  0.14  0.12  0.07  0.04  0.00
 2019 237    68    68  25.6 0.471  0.47 2.588  0.00 2.530 1.327 297.4     0 34.37 13.29  0.82 0.272  0.24  0.20  0.18  0.17  0.15  0.12  0.07  0.05  0.00
 2019 238    69    69  25.9 0.479  0.48 2.655  0.00 2.588 1.349 297.4     0 35.82 13.29  0.82 0.277  0.24  0.21  0.19  0.17  0.15  0.13  0.08  0.05  0.00
 2019 239    70    70  24.7 0.487  0.49 2.733  0.00 2.655 1.369 297.4     0 37.27 13.27  0.83 0.284  0.25  0.21  0.19  0.17  0.15  0.13  0.08  0.05  0.00
 2019 240    71    71  26.3 0.496  0.50 2.798  0.00 2.724 1.389 297.4     0 38.78 13.28  0.84 0.288  0.25  0.21  0.19  0.18  0.15  0.13  0.08  0.05  0.01
 2019 241    72    72  26.9 0.504  0.50 2.862  0.00 2.798 1.410 297.4     0 40.37 13.29  0.85 0.293  0.26  0.22  0.20  0.18  0.16  0.14  0.08  0.06  0.01
 2019 242    73    73  26.9 0.511  0.51 2.925  0.00 2.862 1.430 297.4     0 42.03 13.30  0.86 0.298  0.26  0.22  0.20  0.18  0.16  0.14  0.08  0.06  0.01
 2019 243    74    74  25.8 0.519  0.52 2.986  0.00 2.925 1.450 297.4     0 43.70 13.32  0.87 0.302  0.26  0.22  0.20  0.19  0.16  0.14  0.09  0.06  0.01
 2019 244    75    75  26.2 0.527  0.53 3.044  0.00 2.986 1.469 297.4     0 45.45 13.35  0.88 0.306  0.27  0.23  0.20  0.19  0.16  0.14  0.09  0.06  0.01
 2019 245    76    76  26.1 0.534  0.53 3.109  0.00 3.044 1.492 297.4     0 47.22 13.36  0.89 0.311  0.27  0.23  0.21  0.19  0.17  0.14  0.09  0.06  0.01
 2019 246    77    77  27.0 0.542  0.54 3.171  0.00 3.109 1.516 297.4     0 49.01 13.38  0.90 0.315  0.27  0.23  0.21  0.19  0.17  0.15  0.09  0.06  0.01
 2019 247    78    78  27.1 0.550  0.55 3.228  0.00 3.171 1.537 297.4     0 50.84 13.41  0.91 0.319  0.28  0.24  0.21  0.20  0.17  0.15  0.09  0.07  0.01
 2019 248    79    79  26.0 0.557  0.56 3.285  0.00 3.221 1.556 297.4     0 52.71 13.44  0.92 0.322  0.28  0.24  0.22  0.20  0.17  0.15  0.09  0.07  0.01
 2019 249    80    80  26.9 0.565  0.57 3.338  0.00 3.285 1.577 297.4     0 54.63 13.47  0.93 0.326  0.28  0.24  0.22  0.20  0.18  0.15  0.09  0.07  0.01
 2019 250    81    81  27.0 0.573  0.57 3.388  0.00 3.338 1.597 297.4     0 56.62 13.51  0.94 0.329  0.29  0.24  0.22  0.20  0.18  0.15  0.10  0.07  0.01
 2019 251    82    82  26.0 0.580  0.58 3.435  0.00 3.388 1.617 297.4     0 58.61 13.55  0.95 0.331  0.29  0.25  0.22  0.20  0.18  0.16  0.10  0.07  0.01
 2019 252    83    83  25.5 0.588  0.59 3.479  0.00 3.435 1.635 297.4     0 60.58 13.60  0.96 0.334  0.29  0.25  0.22  0.20  0.18  0.16  0.10  0.07  0.01
 2019 253    84    84  26.1 0.596  0.60 3.521  0.00 3.479 1.655 297.4     0 62.58 13.64  0.97 0.337  0.29  0.25  0.22  0.21  0.18  0.16  0.10  0.07  0.01
 2019 254    85    85  26.0 0.604  0.60 3.567  0.00 3.521 1.674 297.4     0 64.55 13.68  0.98 0.339  0.30  0.25  0.23  0.21  0.18  0.16  0.10  0.08  0.02
 2019 255    86    86  26.8 0.612  0.61 3.604  0.00 3.562 1.691 297.4     0 66.54 13.73  0.98 0.341  0.30  0.25  0.23  0.21  0.18  0.16  0.10  0.08  0.02
 2019 256    87    87  27.6 0.620  0.62 3.647  0.00 3.604 1.713 297.4     0 68.58 13.77  0.99 0.344  0.30  0.26  0.23  0.21  0.19  0.16  0.10  0.08  0.02
 2019 257    88    88  27.0 0.627  0.63 3.687  0.00 3.647 1.733 297.4     0 70.68 13.82  1.00 0.346  0.30  0.26  0.23  0.21  0.19  0.16  0.10  0.08  0.02
 2019 258    89    89  26.6 0.634  0.63 3.725  0.00 3.687 1.754 297.4     0 72.80 13.87  1.01 0.348  0.30  0.26  0.23  0.21  0.19  0.16  0.10  0.08  0.02
 2019 259    90    90  25.6 0.642  0.64 3.761  0.00 3.725 1.772 297.4     0 74.94 13.92  1.02 0.349  0.30  0.26  0.23  0.21  0.19  0.16  0.10  0.08  0.02
 2019 260    91    91  26.7 0.650  0.65 3.800  0.00 3.761 1.793 297.4     0 77.10 13.97  1.03 0.351  0.31  0.26  0.23  0.22  0.19  0.17  0.10  0.08  0.02
 2019 261    92    92  27.1 0.658  0.66 3.832  0.00 3.795 1.810 297.4     0 79.27 14.03  1.04 0.353  0.31  0.26  0.24  0.22  0.19  0.17  0.11  0.08  0.02
 2019 262    93    93  25.5 0.665  0.66 3.862  0.01 3.826 1.826 297.4 1.186 81.41 14.07  1.05 0.354  0.31  0.26  0.24  0.22  0.19  0.17  0.11  0.08  0.02
 2019 263    94    94  26.8 0.673  0.67 3.896  0.01 3.848 1.846 297.4 2.903 83.59 14.11  1.06 0.355  0.31  0.26  0.24  0.22  0.19  0.17  0.11  0.08  0.02
 2019 264    95    95  26.6 0.681  0.68 3.928  0.03 3.864 1.866 297.4 6.515 85.84 14.12  1.07 0.357  0.31  0.26  0.24  0.22  0.19  0.17  0.11  0.09  0.02
 2019 265    96    96  27.0 0.688  0.69 3.964  0.06 3.871 1.887 297.4 11.51 88.13 14.12  1.08 0.358  0.31  0.27  0.24  0.22  0.19  0.17  0.11  0.09  0.02
 2019 266    97    97  27.8 0.696  0.70 3.993  0.09 3.873 1.905 297.4 17.19 90.46 14.12  1.09 0.359  0.31  0.27  0.24  0.22  0.19  0.17  0.11  0.09  0.02
 2019 267    98    98  27.5 0.703  0.70 4.020  0.12 3.875 1.923 297.4 23.70 92.82 14.11  1.10 0.360  0.31  0.27  0.24  0.22  0.19  0.17  0.11  0.09  0.02
 2019 268    99    99  27.7 0.710  0.71 4.046  0.15 3.866 1.941 297.4 30.94 95.19 14.09  1.11 0.360  0.31  0.27  0.24  0.22  0.19  0.17  0.11  0.09  0.02
 2019 269   100   100  26.5 0.717  0.72 4.075  0.19 3.861 1.961 297.4 37.22 97.58 14.08  1.12 0.361  0.31  0.27  0.24  0.22  0.19  0.17  0.11  0.09  0.02
 2019 270   101   101  25.9 0.725  0.72 4.103  0.21 3.861 1.980 297.4 43.01 99.96 14.08  1.13 0.362  0.31  0.27  0.24  0.22  0.20  0.17  0.11  0.09  0.02
 2019 271   102   102  26.9 0.733  0.73 4.134  0.25 3.850 2.000 297.4 50.90 102.3 14.06  1.14 0.363  0.32  0.27  0.24  0.22  0.20  0.17  0.11  0.09  0.02
 2019 272   103   103  27.1 0.740  0.74 4.154  0.29 3.840 2.014 297.4 58.33 104.7 14.05  1.15 0.363  0.32  0.27  0.24  0.22  0.20  0.17  0.11  0.09  0.02
 2019 273   104   104  27.4 0.748  0.75 4.177  0.33 3.824 2.032 297.4 66.14 107.1 14.03  1.16 0.363  0.32  0.27  0.24  0.22  0.20  0.17  0.11  0.09  0.02
 2019 274   105   105  27.3 0.755  0.76 4.203  0.37 3.804 2.053 297.4 74.74 109.5 14.00  1.17 0.364  0.32  0.27  0.24  0.22  0.20  0.17  0.11  0.09  0.03
 2019 275   106   106  26.1 0.762  0.76 4.228  0.41 3.791 2.073 297.4 82.76 111.9 13.97  1.18 0.364  0.32  0.27  0.24  0.22  0.20  0.17  0.11  0.09  0.03
 2019 276   107   107  26.0 0.770  0.77 4.256  0.45 3.783 2.092 297.4 89.38 114.3 13.96  1.19 0.365  0.32  0.27  0.24  0.22  0.20  0.17  0.11  0.09  0.03
 2019 277   108   108  26.7 0.778  0.78 4.278  0.48 3.770 2.109 297.4 96.95 116.6 13.95  1.20 0.365  0.32  0.27  0.24  0.22  0.20  0.17  0.11  0.09  0.03
 2019 278   109   109  26.9 0.786  0.79 4.298  0.53 3.752 2.126 297.4 105.4 119.0 13.92  1.20 0.365  0.32  0.27  0.24  0.22  0.20  0.17  0.11  0.09  0.03
 2019 279   110   110  25.7 0.793  0.79 4.321  0.57 3.732 2.142 297.4 113.4 121.2 13.90  1.20 0.366  0.32  0.27  0.24  0.22  0.20  0.17  0.11  0.09  0.03
 2019 280   111   111  25.6 0.801  0.80 4.342  0.61 3.712 2.157 297.4 121.5 123.5 13.87  1.20 0.366  0.32  0.27  0.24  0.22  0.20  0.17  0.11  0.09  0.03
 2019 281   112   112  25.8 0.810  0.81 4.361  0.65 3.689 2.173 297.4 131.1 125.8 13.83  1.20 0.367  0.32  0.27  0.24  0.22  0.20  0.17  0.11  0.09  0.03
 2019 282   113   113  26.9 0.818  0.82 4.384  0.70 3.665 2.194 297.4 139.7 128.1 13.80  1.20 0.367  0.32  0.27  0.24  0.22  0.20  0.17  0.11  0.09  0.03
 2019 283   114   114  27.0 0.825  0.83 4.409  0.74 3.643 2.215 297.4 148.6 130.4 13.77  1.20 0.367  0.32  0.27  0.25  0.22  0.20  0.18  0.11  0.09  0.03
 2019 284   115   115  26.6 0.833  0.83 4.428  0.79 3.618 2.231 297.4 158.2 132.8 13.73  1.20 0.368  0.32  0.27  0.25  0.23  0.20  0.18  0.11  0.09  0.03
 2019 285   116   116  26.8 0.840  0.84 4.446  0.84 3.590 2.248 297.4 168.1 135.2 13.70  1.20 0.368  0.32  0.27  0.25  0.22  0.20  0.18  0.11  0.10  0.03
 2019 286   117   117  27.0 0.848  0.85 4.467  0.89 3.557 2.266 297.4 178.2 137.7 13.66  1.20 0.368  0.32  0.27  0.25  0.22  0.20  0.18  0.11  0.10  0.03
 2019 287   118   118  27.3 0.855  0.86 4.482  0.95 3.515 2.280 297.4 190.3 140.2 13.61  1.20 0.367  0.32  0.27  0.24  0.22  0.20  0.18  0.11  0.10  0.03
 2019 288   119   119  27.8 0.862  0.86 4.500  1.00 3.479 2.298 297.4 201.2 142.7 13.57  1.20 0.367  0.32  0.27  0.24  0.22  0.20  0.18  0.11  0.10  0.03
 2019 289   120   120  25.5 0.870  0.87 4.517  1.05 3.449 2.314 297.4 210.8 145.2 13.54  1.20 0.367  0.32  0.27  0.24  0.22  0.20  0.18  0.11  0.10  0.03
 2019 290   121   121  27.3 0.878  0.88 4.536  1.11 3.411 2.331 297.4 221.8 147.7 13.50  1.20 0.367  0.32  0.27  0.24  0.22  0.20  0.18  0.11  0.10  0.03
 2019 291   122   122  26.2 0.885  0.89 4.550  1.16 3.375 2.344 297.4 232.4 150.2 13.46  1.20 0.366  0.32  0.27  0.24  0.22  0.20  0.17  0.11  0.10  0.03
 2019 292   123   123  26.6 0.893  0.89 4.566  1.21 3.337 2.361 297.4 243.3 152.6 13.42  1.20 0.366  0.32  0.27  0.24  0.22  0.20  0.17  0.11  0.10  0.03
 2019 293   124   124  27.1 0.901  0.90 4.585  1.27 3.297 2.378 297.4 254.5 155.0 13.37  1.20 0.366  0.32  0.27  0.24  0.22  0.20  0.17  0.11  0.10  0.03
 2019 294   125   125  27.0 0.908  0.91 4.599  1.32 3.259 2.392 297.4 265.3 157.4 13.33  1.20 0.366  0.32  0.27  0.24  0.22  0.20  0.17  0.11  0.10  0.03
 2019 295   126   126  27.3 0.915  0.92 4.614  1.38 3.221 2.410 297.4 276.2 159.9 13.29  1.20 0.365  0.32  0.27  0.24  0.22  0.20  0.17  0.11  0.10  0.03
 2019 296   127   127  27.2 0.923  0.92 4.629  1.43 3.181 2.427 297.4 287.3 162.4 13.25  1.20 0.365  0.32  0.27  0.24  0.22  0.20  0.17  0.11  0.10  0.03
 2019 297   128   128  25.8 0.930  0.93 4.646  1.49 3.144 2.443 297.4 297.9 164.9 13.21  1.20 0.365  0.32  0.27  0.24  0.22  0.20  0.17  0.11  0.10  0.03
 2019 298   129   129  27.8 0.938  0.94 4.658  1.55 3.098 2.458 297.4 310.1 167.4 13.16  1.20 0.364  0.32  0.27  0.24  0.22  0.20  0.17  0.11  0.10  0.03
 2019 299   130   130  27.3 0.945  0.95 4.673  1.61 3.051 2.475 297.4 322.2 169.9 13.11  1.20 0.364  0.32  0.27  0.24  0.22  0.20  0.17  0.11  0.10  0.03
 2019 300   131   131  25.8 0.952  0.95 4.689  1.66 3.011 2.491 297.4 333.1 172.4 13.07  1.20 0.364  0.32  0.27  0.24  0.22  0.20  0.17  0.11  0.10  0.03
 2019 301   132   132  25.7 0.961  0.96 4.700  1.72 2.971 2.503 297.4 344.0 174.8 13.03  1.20 0.363  0.31  0.27  0.24  0.22  0.20  0.17  0.11  0.10  0.03
 2019 302   133   133  27.5 0.969  0.97 4.715  1.78 2.922 2.521 297.4 356.6 177.2 12.97  1.20 0.363  0.31  0.27  0.24  0.22  0.20  0.17  0.11  0.10  0.03
 2019 303   134   134  28.1 0.976  0.98 4.730  1.84 2.870 2.540 297.4 369.7 179.7 12.90  1.20 0.362  0.31  0.27  0.24  0.22  0.20  0.17  0.11  0.10  0.03
 2019 304   135   135  27.1 0.983  0.98 4.741  1.91 2.820 2.554 297.4 382.5 182.2 12.85  1.20 0.362  0.31  0.27  0.24  0.22  0.20  0.17  0.11  0.10  0.03
 2019 305   136   136  27.6     1  0.99 4.755  1.98 2.765 2.572 297.4 396.2 184.8 12.78  1.20 0.361  0.31  0.27  0.24  0.22  0.20  0.17  0.11  0.10  0.03
 2019 306   137   137  27.0     1  1.00 4.770  2.04 2.711 2.589 297.4 409.7 187.3 12.71  1.20 0.361  0.31  0.27  0.24  0.22  0.20  0.17  0.11  0.10  0.03
 2019 307   138   138  27.6 1.008  1.01 4.781  2.12 2.646 2.603 297.4 425.3 189.8 12.63  1.20 0.360  0.31  0.27  0.24  0.22  0.20  0.17  0.11  0.10  0.03
 2019 308   139   139  27.7 1.011  1.01 4.789  2.21 2.573 2.609 297.4 442.0 192.3 12.53  1.20 0.359  0.31  0.27  0.24  0.22  0.19  0.17  0.11  0.10  0.03
 2019 309   140   140  28.4 1.015  1.01 4.806  2.28 2.504 2.616 297.4 457.3 194.8 12.44  1.20 0.359  0.31  0.27  0.24  0.22  0.19  0.17  0.11  0.10  0.03
 2019 310   141   141  28.2 1.018  1.02 4.824  2.36 2.447 2.624 297.4 472.4 197.3 12.35  1.20 0.358  0.31  0.27  0.24  0.22  0.19  0.17  0.11  0.10  0.03
 2019 311   142   142  28.0 1.021  1.02 4.838  2.43 2.390 2.629 297.4 487.0 199.8 12.28  1.20 0.358  0.31  0.26  0.24  0.22  0.19  0.17  0.11  0.10  0.03
 2019 312   143   143  28.4 1.025  1.02 4.861  2.49 2.343 2.637 297.4 499.4 202.4 12.22  1.20 0.358  0.31  0.26  0.24  0.22  0.19  0.17  0.11  0.10  0.03
 2019 313   144   144  28.5 1.028  1.03 4.885  2.57 2.290 2.644 297.4 514.7 204.9 12.13  1.20 0.358  0.31  0.26  0.24  0.22  0.19  0.17  0.11  0.10  0.03
 2019 314   145   145  27.5 1.031  1.03 4.906  2.64 2.238 2.651 297.4 529.3 207.4 12.05  1.20 0.358  0.31  0.26  0.24  0.22  0.19  0.17  0.11  0.10  0.03
 2019 315   146   146  27.8 1.035  1.03 4.937  2.72 2.188 2.660 297.4 544.0 209.9 11.96  1.20 0.358  0.31  0.27  0.24  0.22  0.19  0.17  0.11  0.10  0.03
 2019 316   147   147  26.8 1.038  1.04 4.960  2.79 2.141 2.667 297.4 559.6 212.5 11.87  1.20 0.358  0.31  0.27  0.24  0.22  0.19  0.17  0.11  0.10  0.03
 2019 317   148   148  27.5 1.042  1.04 4.981  2.88 2.080 2.674 297.4 575.9 215.0 11.77  1.20 0.358  0.31  0.27  0.24  0.22  0.19  0.17  0.11  0.10  0.03
 2019 318   149   149  27.8 1.045  1.05 5.010  2.95 2.027 2.683 297.4 591.0 217.5 11.68  1.20 0.359  0.31  0.27  0.24  0.22  0.19  0.17  0.11  0.10  0.03
 2019 319   150   150  27.4 1.048  1.05 5.031  3.03 1.983 2.690 297.4 605.6 220.1 11.60  1.20 0.359  0.31  0.27  0.24  0.22  0.19  0.17  0.11  0.10  0.03
 2019 320   151   151  27.9 1.051  1.05 5.051  3.10 1.932 2.697 297.4 619.8 222.6 11.53  1.20 0.359  0.31  0.27  0.24  0.22  0.19  0.17  0.11  0.10  0.03
 2019 321   152   152  28.3 1.054  1.05 5.072  3.16 1.894 2.703 297.4 631.6 225.2 11.48  1.20 0.358  0.31  0.27  0.24  0.22  0.19  0.17  0.11  0.10  0.03
 2019 322   153   153  28.5 1.057  1.06 5.087  3.22 1.845 2.708 297.4 645.1 227.7 11.41  1.20 0.356  0.31  0.27  0.24  0.22  0.19  0.17  0.11  0.10  0.03
 2019 323   154   154  28.6 1.060  1.06 5.109  3.29 1.793 2.715 297.4 658.8 230.3 11.35  1.20 0.356  0.31  0.27  0.24  0.22  0.19  0.17  0.11  0.10  0.04
 2019 324   155   155  28.0 1.063  1.06 5.124  3.35 1.753 2.721 297.4 670.6 232.8 11.30  1.20 0.356  0.31  0.26  0.24  0.22  0.19  0.17  0.11  0.10  0.04
 2019 325   156   156  27.3 1.067  1.07 5.142  3.40 1.718 2.726 297.4 680.9 235.4 11.27  1.20 0.356  0.31  0.26  0.24  0.22  0.19  0.17  0.11  0.10  0.04
 2019 326   157   157  28.4 1.070  1.07 5.163  3.46 1.683 2.733 297.4 691.6 237.9 11.24  1.20 0.355  0.31  0.26  0.24  0.22  0.19  0.17  0.11  0.10  0.04
 2019 327   158   158  28.3 1.073  1.07 5.177  3.51 1.653 2.739 297.4 701.3 240.5 11.22  1.20 0.355  0.31  0.26  0.24  0.22  0.19  0.17  0.11  0.10  0.04
 2019 328   159   159  28.2 1.077  1.08 5.199  3.55 1.628 2.747 297.4 709.5 243.0 11.21  1.20 0.355  0.31  0.26  0.24  0.22  0.19  0.17  0.11  0.10  0.04
 2019 329   160   160  28.4 1.080  1.08 5.219  3.60 1.599 2.754 297.4 719.6 245.6 11.18  1.20 0.355  0.31  0.26  0.24  0.22  0.19  0.17  0.11  0.10  0.04
 2019 330   161   161  28.2 1.083  1.08 5.237  3.65 1.565 2.760 297.4 730.1 248.1 11.15  1.20 0.354  0.31  0.26  0.24  0.22  0.19  0.17  0.11  0.10  0.04
 2019 331   162   162  28.6 1.085  1.09 5.257  3.70 1.537 2.767 297.4 739.3 250.7 11.13  1.20 0.354  0.31  0.26  0.24  0.22  0.19  0.17  0.11  0.10  0.04
 2019 332   163   163  27.8 1.088  1.09 5.270  3.74 1.512 2.771 297.4 748.0 253.2 11.12  1.20 0.352  0.31  0.26  0.24  0.22  0.19  0.17  0.11  0.10  0.04
 2019 333   164   164  28.1 1.090  1.09 5.288  3.78 1.485 2.777 297.4 756.3 255.8 11.11  1.20 0.349  0.31  0.26  0.24  0.22  0.19  0.17  0.11  0.10  0.04
 2019 334   165   165  28.0 1.093  1.09 5.302  3.82 1.470 2.782 297.4 762.8 258.3 11.13  1.20 0.348  0.31  0.26  0.24  0.22  0.19  0.17  0.11  0.10  0.04
 2019 335   166   166  27.2 1.097  1.10 5.317  3.86 1.441 2.788 297.4 771.2 260.9 11.12  1.20 0.348  0.31  0.26  0.24  0.22  0.19  0.17  0.11  0.10  0.04
 2019 336   167   167  27.8 1.100  1.10 5.330  3.89 1.419 2.793 297.4 778.2 263.4 11.13  1.20 0.347  0.31  0.26  0.24  0.22  0.19  0.17  0.11  0.10  0.04
 2019 337   168   168  27.6 1.103  1.10 5.345  3.93 1.398 2.798 297.4 785.2 265.9 11.14  1.20 0.347  0.31  0.26  0.23  0.22  0.19  0.17  0.11  0.10  0.04
 2019 338   169   169  27.7 1.106  1.11 5.363  3.96 1.379 2.804 297.4 792.1 268.5 11.14  1.20 0.346  0.31  0.26  0.23  0.22  0.19  0.17  0.11  0.10  0.04
 2019 339   170   170  27.5 1.109  1.11 5.378  3.99 1.365 2.809 297.4 798.2 271.0 11.16  1.20 0.345  0.31  0.26  0.23  0.22  0.19  0.17  0.11  0.10  0.04
 2019 340   171   171  27.8 1.112  1.11 5.395  4.03 1.347 2.815 297.4 804.9 273.6 11.17  1.20 0.344  0.30  0.26  0.23  0.22  0.19  0.17  0.11  0.10  0.04
 2019 341   172   172  27.6 1.114  1.11 5.413  4.06 1.332 2.820 297.4 811.2 276.1 11.19  1.20 0.341  0.30  0.26  0.23  0.22  0.19  0.17  0.11  0.10  0.04
 2019 342   173   173  27.7 1.116  1.12 5.426  4.09 1.318 2.824 297.4 817.4 278.6 11.20  1.20 0.338  0.30  0.26  0.23  0.21  0.19  0.17  0.11  0.10  0.04
 2019 343   174   174  28.2 1.120  1.12 5.439  4.12 1.306 2.830 297.4 822.5 281.2 11.23  1.20 0.338  0.30  0.26  0.23  0.21  0.19  0.17  0.11  0.10  0.04
 2019 344   175   175  27.4 1.123  1.12 5.447  4.14 1.294 2.833 297.4 827.3 283.7 11.27  1.20 0.337  0.30  0.26  0.23  0.21  0.19  0.17  0.11  0.10  0.04
 2019 345   176   176  26.7 1.127  1.13 5.461  4.17 1.273 2.838 297.4 833.3 286.2 11.29  1.20 0.336  0.30  0.26  0.23  0.21  0.19  0.17  0.11  0.10  0.04
 2019 346   177   177  26.9 1.130  1.13 5.469  4.20 1.258 2.841 297.4 838.6 288.7 11.32  1.20 0.335  0.30  0.26  0.23  0.21  0.19  0.17  0.11  0.10  0.04
 2019 347   178   178  27.6 1.133  1.13 5.482  4.23 1.241 2.846 297.4 843.9 291.3 11.34  1.20 0.335  0.30  0.26  0.23  0.21  0.19  0.17  0.11  0.10  0.04
 2019 348   179   179  26.9 1.136  1.14 5.494  4.25 1.228 2.850 297.4 848.9 293.8 11.37  1.20 0.334  0.30  0.26  0.23  0.21  0.19  0.17  0.11  0.10  0.04
 2019 349   180   180  26.7 1.138  1.14 5.510  4.27 1.217 2.855 297.4 853.6 296.3 11.41  1.20 0.332  0.30  0.26  0.23  0.21  0.19  0.17  0.11  0.10  0.04
 2019 350   181   181  27.2 1.141  1.14 5.525  4.30 1.206 2.859 297.4 859.0 298.8 11.43  1.20 0.329  0.30  0.26  0.23  0.21  0.19  0.17  0.11  0.10  0.04
 2019 351   182   182  27.5 1.143  1.14 5.540  4.33 1.193 2.864 297.4 864.4 301.3 11.46  1.20 0.327  0.30  0.26  0.23  0.21  0.19  0.17  0.11  0.10  0.04
 2019 352   183   183  28.0 1.146  1.15 5.553  4.36 1.180 2.870 297.4 870.1 303.8 11.48  1.20 0.326  0.30  0.25  0.23  0.21  0.19  0.17  0.11  0.10  0.04
 2019 353   184   184  27.6 1.150  1.15 5.561  4.38 1.168 2.873 297.4 874.7 306.3 11.52  1.20 0.325  0.30  0.25  0.23  0.21  0.19  0.17  0.11  0.10  0.04
 2019 354   185   185  27.2 1.153  1.15 5.574  4.40 1.159 2.878 297.4 878.3 308.8 11.56  1.20 0.325  0.30  0.25  0.23  0.21  0.19  0.17  0.11  0.10  0.04
 2019 355   186   186  26.5 1.156  1.16 5.582  4.42 1.151 2.881 297.4 882.1 311.3 11.61  1.20 0.324  0.30  0.25  0.23  0.21  0.19  0.17  0.11  0.10  0.04
 2019 356   187   187  25.5 1.159  1.16 5.594  4.44 1.140 2.885 297.4 886.2 313.8 11.65  1.20 0.323  0.30  0.25  0.23  0.21  0.19  0.17  0.11  0.10  0.04
 2019 357   188   188  26.4 1.162  1.16 5.601  4.46 1.135 2.888 297.4 889.4 316.2 11.70  1.20 0.322  0.29  0.25  0.23  0.21  0.18  0.16  0.11  0.10  0.04
 2019 358   189   189  26.7 1.165  1.16 5.613  4.48 1.123 2.892 297.4 893.3 318.7 11.75  1.20 0.321  0.29  0.25  0.23  0.21  0.18  0.16  0.11  0.10  0.04
 2019 359   190   190  26.6 1.167  1.17 5.625  4.50 1.111 2.896 297.4 897.8 321.2 11.78  1.20 0.319  0.29  0.25  0.23  0.21  0.18  0.16  0.11  0.10  0.04
 2019 360   191   191  26.9 1.170  1.17 5.636  4.52 1.105 2.899 297.4 901.3 323.7 11.83  1.20 0.317  0.29  0.25  0.23  0.21  0.18  0.16  0.11  0.10  0.04
 2019 361   192   192  26.7 1.173  1.17 5.647  4.53 1.103 2.904 297.4 904.2 326.1 11.88  1.20 0.316  0.29  0.25  0.22  0.21  0.18  0.16  0.11  0.10  0.04
 2019 362   193   193  26.5 1.177  1.18 5.658  4.55 1.096 2.907 297.4 907.8 328.6 11.93  1.20 0.315  0.29  0.25  0.22  0.21  0.18  0.16  0.11  0.10  0.04
 2019 363   194   194  25.7 1.180  1.18 5.668  4.56 1.091 2.912 297.4 910.9 331.0 11.98  1.20 0.315  0.29  0.25  0.22  0.21  0.18  0.16  0.11  0.10  0.04
 2019 364   195   195  26.1 1.184  1.18 5.681  4.58 1.087 2.916 297.4 913.7 333.5 12.04  1.20 0.314  0.29  0.25  0.22  0.20  0.18  0.16  0.11  0.10  0.04
 2019 365   196   196  26.4 1.187  1.19 5.692  4.60 1.083 2.920 297.4 917.1 335.9 12.09  1.20 0.314  0.29  0.25  0.22  0.20  0.18  0.16  0.11  0.10  0.04
 2020   1   197   197  26.2 1.189  1.19 5.703  4.62 1.074 2.924 297.4 920.8 338.4 12.13  1.20 0.313  0.29  0.25  0.22  0.20  0.18  0.16  0.11  0.10  0.04
 2020   2   198   198  25.2 1.192  1.19 5.716  4.63 1.072 2.928 297.4 923.5 340.8 12.19  1.20 0.312  0.29  0.25  0.22  0.20  0.18  0.16  0.11  0.10  0.04
 2020   3   199   199  23.6 1.195  1.19 5.726  4.64 1.075 2.931 297.4 925.5 343.2 12.26  1.20 0.311  0.29  0.25  0.22  0.20  0.18  0.16  0.11  0.10  0.04
 2020   4   200   200  25.0 1.197  1.20 5.737  4.65 1.070 2.934 297.4 928.5 345.7 12.31  1.20 0.308  0.29  0.25  0.22  0.20  0.18  0.16  0.11  0.10  0.04
 2020   5   201   201  25.0 1.200  1.20 5.744  4.67 1.067 2.936 297.4 931.2 348.1 12.37  1.20 0.306  0.29  0.24  0.22  0.20  0.18  0.16  0.11  0.10  0.04
 2020   6   202   202  26.2 1.204  1.20 5.751  4.68 1.061 2.939 297.4 933.8 350.5 12.43  1.20 0.305  0.29  0.24  0.22  0.20  0.18  0.16  0.11  0.10  0.04
 2020   7   203   203  27.6 1.207  1.21 5.758  4.70 1.053 2.942 297.4 936.9 352.9 12.49  1.20 0.304  0.28  0.24  0.22  0.20  0.18  0.16  0.11  0.10  0.04
 2020   8   204   204  28.1 1.210  1.21 5.768  4.71 1.043 2.946 297.4 940.2 355.3 12.54  1.20 0.303  0.28  0.24  0.22  0.20  0.18  0.16  0.11  0.10  0.04
 2020   9   205   205  28.3 1.213  1.21 5.775  4.73 1.038 2.949 297.4 943.2 357.7 12.60  1.20 0.303  0.28  0.24  0.22  0.20  0.18  0.16  0.11  0.10  0.04
 2020  10   206   206  28.0 1.216  1.22 5.784  4.74 1.030 2.952 297.4 946.1 360.1 12.65  1.20 0.302  0.28  0.24  0.22  0.20  0.18  0.16  0.11  0.10  0.04
 2020  11   207   207  27.8 1.218  1.22 5.794  4.76 1.023 2.956 297.4 949.2 362.5 12.71  1.20 0.301  0.28  0.24  0.22  0.20  0.18  0.16  0.11  0.10  0.04
 2020  12   208   208  28.5 1.220  1.22 5.805  4.77 1.020 2.961 297.4 951.9 364.9 12.77  1.20 0.300  0.28  0.24  0.22  0.20  0.18  0.16  0.11  0.10  0.04
 2020  13   209   209  29.8 1.223  1.22 5.811  4.79 1.015 2.963 297.4 954.9 367.2 12.82  1.20 0.298  0.28  0.24  0.21  0.20  0.18  0.16  0.11  0.10  0.04
 2020  14   210   210  29.0 1.224  1.22 5.818  4.80 1.012 2.966 297.4 956.9 369.6 12.89  1.20 0.296  0.28  0.24  0.21  0.20  0.18  0.16  0.11  0.10  0.04
 2020  15   211   211  29.1 1.227  1.23 5.826  4.81 1.002 2.970 297.4 960.1 372.0 12.95  1.20 0.295  0.28  0.24  0.21  0.20  0.17  0.16  0.11  0.10  0.04
 2020  16   212   212  27.5 1.230  1.23 5.829  4.83 0.989 2.971 297.4 964.0 374.3 13.00  1.20 0.294  0.28  0.24  0.21  0.20  0.17  0.15  0.10  0.10  0.04
 2020  17   213   213  26.6 1.233  1.23 5.836  4.85 0.977 2.974 297.4 967.2 376.7 13.05  1.20 0.293  0.28  0.24  0.21  0.19  0.17  0.15  0.10  0.10  0.04
 2020  18   214   214  26.8 1.236  1.24 5.843  4.88 0.954 2.977 297.4 973.1 379.0 13.08  1.20 0.292  0.27  0.23  0.21  0.19  0.17  0.15  0.10  0.10  0.04
 2020  19   215   215  25.8 1.239  1.24 5.853  4.91 0.932 2.982 297.4 978.8 381.3 13.10  1.20 0.291  0.27  0.23  0.21  0.19  0.17  0.15  0.10  0.10  0.04
 2020  20   216   216  26.7 1.242  1.24 5.864  4.93 0.925 2.986 297.4 982.1 383.7 13.15  1.20 0.291  0.27  0.23  0.21  0.19  0.17  0.15  0.10  0.10  0.04
 2020  21   217   217  28.1 1.245  1.25 5.873  4.96 0.906 2.990 297.4 988.1 386.0 13.17  1.20 0.290  0.27  0.23  0.21  0.19  0.17  0.15  0.10  0.10  0.04
 2020  22   218   218  28.2 1.247  1.25 5.883  4.98 0.887 2.994 297.4 993.7 388.3 13.19  1.20 0.290  0.27  0.23  0.21  0.19  0.17  0.15  0.10  0.10  0.04
 2020  23   219   219  27.8 1.250  1.25 5.892  5.00 0.878 2.997 297.4 997.4 390.6 13.24  1.20 0.288  0.27  0.23  0.21  0.19  0.17  0.15  0.10  0.10  0.04
 2020  24   220   220  27.5 1.252  1.25 5.901  5.03 0.856 3.000 297.4  1003 392.9 13.26  1.20 0.287  0.27  0.23  0.21  0.19  0.17  0.15  0.10  0.10  0.04
 2020  25   221   221  26.8 1.253  1.25 5.907  5.05 0.845 3.002 296.3  1008 395.2 13.30  1.20 0.284  0.27  0.23  0.21  0.19  0.17  0.15  0.10  0.09  0.04
 2020  26   222   222  25.3 1.257  1.26 5.914  5.07 0.838 3.005 292.5  1010 397.5 13.35  1.20 0.284  0.27  0.23  0.21  0.19  0.17  0.15  0.10  0.09  0.04
 2020  27   223   223  26.0 1.260  1.26 5.917  5.09 0.825 3.007 292.5  1014 399.8 13.40  1.20 0.283  0.27  0.23  0.21  0.19  0.17  0.15  0.10  0.09  0.04
 2020  28   224   224  26.5 1.264  1.26 5.924  5.10 0.814 3.010 292.5  1017 402.1 13.46  1.20 0.282  0.27  0.23  0.20  0.19  0.17  0.15  0.10  0.09  0.04
 2020  29   225   225  27.1 1.267  1.27 5.932  5.11 0.807 3.013 292.5  1019 404.4 13.52  1.20 0.281  0.27  0.23  0.20  0.19  0.17  0.15  0.10  0.09  0.04
 2020  30   226   226  27.2 1.269  1.27 5.938  5.13 0.801 3.015 289.8  1022 406.6 13.57  1.20 0.280  0.27  0.23  0.20  0.19  0.17  0.15  0.10  0.09  0.04
 2020  31   227   227  27.4 1.272  1.27 5.944  5.15 0.785 3.018 289.8  1027 408.9 13.61  1.20 0.279  0.26  0.23  0.20  0.19  0.17  0.15  0.10  0.09  0.04
 2020  32   228   228  27.0 1.274  1.27 5.952  5.17 0.769 3.021 289.8  1031 411.1 13.65  1.20 0.279  0.26  0.22  0.20  0.19  0.17  0.15  0.10  0.09  0.04
 2020  33   229   229  26.5 1.276  1.28 5.961  5.19 0.761 3.024 289.8  1034 413.4 13.70  1.20 0.278  0.26  0.22  0.20  0.19  0.17  0.15  0.10  0.09  0.04
 2020  34   230   230  26.8 1.279  1.28 5.967  5.21 0.744 3.026 289.8  1039 415.6 13.74  1.20 0.277  0.26  0.22  0.20  0.18  0.16  0.14  0.10  0.09  0.04
 2020  35   231   231  26.9 1.281  1.28 5.973  5.24 0.729 3.029 289.8  1043 417.9 13.78  1.20 0.275  0.26  0.22  0.20  0.18  0.16  0.14  0.10  0.09  0.04
 2020  36   232   232  27.1 1.284  1.28 5.979  5.25 0.722 3.030 289.8  1046 420.1 13.84  1.20 0.274  0.26  0.22  0.20  0.18  0.16  0.14  0.10  0.09  0.04
 2020  37   233   233  27.5 1.287  1.29 5.985  5.27 0.709 3.034 289.8  1050 422.3 13.90  1.20 0.273  0.26  0.22  0.20  0.18  0.16  0.14  0.10  0.09  0.04
 2020  38   234   234  27.2 1.290  1.29 5.992  5.28 0.701 3.037 289.8  1052 424.5 13.96  1.20 0.272  0.26  0.22  0.20  0.18  0.16  0.14  0.10  0.09  0.04
 2020  39   235   235  28.4 1.293  1.29 5.998  5.29 0.696 3.040 288.1  1055 426.7 14.02  1.20 0.272  0.26  0.22  0.20  0.18  0.16  0.14  0.10  0.09  0.04
 2020  40   236   236  28.4 1.296  1.30 6.004  5.31 0.688 3.043 288.1  1058 428.9 14.08  1.20 0.271  0.26  0.22  0.20  0.18  0.16  0.14  0.10  0.09  0.04
 2020  41   237   237  28.4 1.298  1.30 6.012  5.32 0.680 3.046 288.1  1060 431.1 14.14  1.20 0.270  0.26  0.22  0.20  0.18  0.16  0.14  0.10  0.09  0.04
 2020  42   238   238  28.9 1.300  1.30 6.021  5.34 0.672 3.050 288.1  1064 433.3 14.19  1.20 0.269  0.25  0.22  0.20  0.18  0.16  0.14  0.10  0.09  0.04
 2020  43   239   239  28.0 1.302  1.30 6.027  5.36 0.661 3.053 288.1  1067 435.5 14.24  1.20 0.269  0.25  0.22  0.20  0.18  0.16  0.14  0.10  0.09  0.04
 2020  44   240   240  27.8 1.305  1.30 6.035  5.38 0.646 3.056 288.1  1072 437.7 14.28  1.20 0.268  0.25  0.22  0.19  0.18  0.16  0.14  0.10  0.09  0.04
 2020  45   241   241  28.5 1.307  1.31 6.041  5.40 0.632 3.058 288.1  1076 439.8 14.32  1.20 0.267  0.25  0.22  0.19  0.18  0.16  0.14  0.10  0.09  0.04
 2020  46   242   242  28.4 1.308  1.31 6.047  5.42 0.618 3.061 288.1  1080 442.0 14.37  1.20 0.265  0.25  0.21  0.19  0.18  0.16  0.14  0.10  0.09  0.04
 2020  47   243   243  28.8 1.311  1.31 6.051  5.43 0.614 3.062 284.2  1082 444.2 14.43  1.20 0.264  0.25  0.21  0.19  0.18  0.16  0.14  0.10  0.09  0.04
 2020  48   244   244  29.3 1.314  1.31 6.057  5.44 0.607 3.066 282.4  1084 446.3 14.50  1.20 0.263  0.25  0.21  0.19  0.18  0.16  0.14  0.10  0.09  0.04
 2020  49   245   245  29.1 1.317  1.32 6.063  5.45 0.603 3.069 282.4  1086 448.4 14.57  1.20 0.262  0.25  0.21  0.19  0.18  0.16  0.13  0.10  0.09  0.04
 2020  50   246   246  29.2 1.319  1.32 6.066  5.46 0.596 3.071 282.4  1088 450.6 14.64  1.20 0.261  0.25  0.21  0.19  0.18  0.16  0.13  0.09  0.09  0.04
 2020  51   247   247  29.9 1.321  1.32 6.071  5.48 0.582 3.074 279.2  1092 452.7 14.68  1.20 0.261  0.25  0.21  0.19  0.17  0.16  0.13  0.09  0.09  0.04
 2020  52   248   248  30.2 1.323  1.32 6.079  5.50 0.571 3.077 274.2  1095 454.8 14.72  1.20 0.260  0.25  0.21  0.19  0.17  0.15  0.13  0.09  0.09  0.04
 2020  53   249   249  31.3 1.325  1.33 6.084  5.52 0.560 3.080 269.7  1099 456.9 14.75  1.20 0.258  0.25  0.21  0.19  0.17  0.15  0.13  0.09  0.09  0.04
 2020  54   250   250  31.1 1.327  1.33 6.090  5.53 0.550 3.083 263.1  1102 459.0 14.79  1.20 0.256  0.24  0.21  0.19  0.17  0.15  0.13  0.09  0.09  0.04
 2020  55   251   251  30.5 1.328  1.33 6.097  5.55 0.538 3.086 257.4  1105 461.1 14.82  1.20 0.254  0.24  0.21  0.19  0.17  0.15  0.13  0.09  0.09  0.04
 2020  56   252   252  29.4 1.330  1.33 6.102  5.56 0.531 3.088 256.1  1108 463.2 14.87  1.20 0.252  0.24  0.21  0.19  0.17  0.15  0.13  0.09  0.09  0.04
 2020  57   253   253  29.8 1.332  1.33 6.107  5.57 0.525 3.091 250.4  1110 465.3 14.92  1.20 0.250  0.24  0.21  0.19  0.17  0.15  0.13  0.09  0.09  0.03
 2020  58   254   254  30.0 1.334  1.33 6.111  5.58 0.521 3.093 250.4  1112 467.3 15.00  1.20 0.249  0.24  0.21  0.19  0.17  0.15  0.13  0.09  0.09  0.03
 2020  59   255   255  30.3 1.337  1.34 6.114  5.60 0.510 3.095 246.9  1115 469.4 15.06  1.20 0.248  0.24  0.21  0.18  0.17  0.15  0.13  0.09  0.09  0.03
 2020  60   256   256  32.2 1.339  1.34 6.119  5.61 0.499 3.098 240.0  1117 471.5 15.09  1.20 0.248  0.24  0.20  0.18  0.17  0.15  0.13  0.09  0.09  0.03
 2020  61   257   257  30.8 1.341  1.34 6.124  5.63 0.489 3.100 240.0  1120 473.5 15.15  1.20 0.247  0.24  0.20  0.18  0.17  0.15  0.13  0.09  0.09  0.03
 2020  62   258   258  30.8 1.343  1.34 6.130  5.64 0.482 3.103 240.0  1123 475.5 15.22  1.20 0.246  0.24  0.20  0.18  0.17  0.15  0.13  0.09  0.09  0.03
 2020  63   259   259  30.8 1.345  1.34 6.136  5.65 0.474 3.106 240.0  1125 477.5 15.28  1.20 0.246  0.24  0.20  0.18  0.17  0.15  0.13  0.09  0.09  0.03
 2020  64   260   260  30.8 1.347  1.35 6.141  5.67 0.463 3.110 240.0  1129 479.5 15.34  1.20 0.245  0.24  0.20  0.18  0.17  0.15  0.12  0.09  0.09  0.03
 2020  65   261   261  31.3 1.349  1.35 6.146  5.69 0.454 3.112 234.7  1132 481.5 15.37  1.20 0.244  0.24  0.20  0.18  0.17  0.15  0.12  0.09  0.09  0.03
 2020  66   262   262  30.5 1.350  1.35 6.152  5.71 0.438 3.115 234.7  1136 483.4 15.42  1.20 0.243  0.23  0.20  0.18  0.17  0.15  0.12  0.09  0.08  0.03
 2020  67   263   263  30.8 1.352  1.35 6.154  5.72 0.428 3.117 234.7  1139 485.4 15.48  1.20 0.241  0.23  0.20  0.18  0.17  0.15  0.12  0.09  0.08  0.03
 2020  68   264   264  30.6 1.353  1.35 6.159  5.74 0.417 3.119 234.7  1141 487.4 15.54  1.20 0.239  0.23  0.20  0.18  0.16  0.15  0.12  0.09  0.08  0.03
 2020  69   265   265  31.4 1.356  1.36 6.165  5.75 0.412 3.123 228.1  1143 489.3 15.58  1.20 0.238  0.23  0.20  0.18  0.16  0.15  0.12  0.09  0.08  0.03
 2020  70   266   266  30.6 1.358  1.36 6.170  5.75 0.411 3.125 219.8  1145 491.2 15.63  1.20 0.238  0.23  0.20  0.18  0.16  0.15  0.12  0.09  0.08  0.03
 2020  71   267   267  31.1 1.360  1.36 6.175  5.76 0.409 3.128 219.8  1146 493.1 15.71  1.20 0.237  0.23  0.20  0.18  0.16  0.15  0.12  0.09  0.08  0.03
 2020  72   268   268  30.6 1.362  1.36 6.181  5.77 0.405 3.131 219.8  1148 495.0 15.78  1.20 0.236  0.23  0.20  0.18  0.16  0.15  0.12  0.09  0.08  0.03
 2020  73   269   269  29.3 1.364  1.36 6.186  5.78 0.400 3.135 219.8  1150 497.0 15.86  1.20 0.236  0.23  0.20  0.18  0.16  0.14  0.12  0.09  0.08  0.03
 2020  74   270   270  28.9 1.366  1.37 6.191  5.79 0.392 3.138 219.8  1152 499.0 15.93  1.20 0.235  0.23  0.20  0.18  0.16  0.14  0.12  0.09  0.08  0.03
 2020  75   271   271  29.3 1.368  1.37 6.197  5.80 0.386 3.140 212.8  1155 500.9 15.97  1.20 0.234  0.23  0.19  0.18  0.16  0.14  0.12  0.09  0.08  0.03
 2020  76   272   272  30.3 1.370  1.37 6.202  5.81 0.385 3.143 203.2  1156 502.9 16.01  1.20 0.232  0.23  0.19  0.17  0.16  0.14  0.12  0.09  0.08  0.03
 2020  77   273   273  30.9 1.372  1.37 6.207  5.82 0.384 3.146 198.5  1157 504.8 16.08  1.20 0.230  0.23  0.19  0.17  0.16  0.14  0.12  0.09  0.08  0.03
 2020  78   274   274  31.3 1.373  1.37 6.212  5.82 0.382 3.149 197.2  1158 506.8 16.16  1.20 0.228  0.23  0.19  0.17  0.16  0.14  0.11  0.09  0.08  0.03
 2020  79   275   275  31.3 1.375  1.37 6.217  5.83 0.380 3.150 194.0  1160 508.7 16.24  1.20 0.226  0.23  0.19  0.17  0.16  0.14  0.11  0.08  0.08  0.03
 2020  80   276   276  30.2 1.377  1.38 6.222  5.84 0.373 3.154 194.0  1162 510.6 16.31  1.20 0.226  0.22  0.19  0.17  0.16  0.14  0.11  0.08  0.08  0.03
 2020  81   277   277  31.5 1.380  1.38 6.224  5.85 0.370 3.156 192.7  1163 512.5 16.39  1.20 0.225  0.22  0.19  0.17  0.16  0.14  0.11  0.08  0.08  0.03
 2020  82   278   278  30.5 1.382  1.38 6.227  5.86 0.362 3.157 192.7  1166 514.3 16.46  1.20 0.224  0.22  0.19  0.17  0.16  0.14  0.11  0.08  0.08  0.03
 2020  83   279   279  30.7 1.384  1.38 6.231  5.87 0.350 3.161 192.7  1168 516.3 16.53  1.20 0.224  0.22  0.19  0.17  0.16  0.14  0.11  0.08  0.08  0.03
 2020  84   280   280  28.7 1.386  1.39 6.237  5.88 0.345 3.164 192.7  1170 518.2 16.61  1.20 0.223  0.22  0.19  0.17  0.16  0.14  0.11  0.08  0.08  0.03
 2020  85   281   281  29.9 1.389  1.39 6.239  5.89 0.340 3.166 192.7  1172 520.0 16.69  1.20 0.222  0.22  0.19  0.17  0.16  0.14  0.11  0.08  0.08  0.03
 2020  86   282   282  30.1 1.391  1.39 6.244  5.91 0.331 3.169 192.7  1174 521.9 16.77  1.20 0.222  0.22  0.19  0.17  0.16  0.14  0.11  0.08  0.08  0.03
 2020  87   283   283  31.5 1.393  1.39 6.250  5.91 0.330 3.172 192.7  1175 523.8 16.86  1.20 0.221  0.22  0.19  0.17  0.15  0.14  0.11  0.08  0.08  0.03
 2020  88   284   284  31.3 1.395  1.39 6.257  5.92 0.330 3.177 192.7  1177 525.7 16.95  1.20 0.221  0.22  0.19  0.17  0.15  0.14  0.11  0.08  0.08  0.03
 2020  89   285   285  31.7 1.396  1.40 6.262  5.92 0.332 3.180 189.6  1178 527.6 17.03  1.20 0.220  0.22  0.19  0.17  0.15  0.14  0.11  0.08  0.08  0.03
 2020  90   286   286  31.8 1.398  1.40 6.267  5.93 0.330 3.183 189.6  1179 529.4 17.12  1.20 0.219  0.22  0.19  0.17  0.15  0.14  0.11  0.08  0.08  0.03
 2020  91   287   287  30.8 1.399  1.40 6.269  5.94 0.323 3.184 189.6  1181 531.3 17.20  1.20 0.218  0.22  0.18  0.17  0.15  0.14  0.11  0.08  0.08  0.03
 2020  92   288   288  30.0 1.402  1.40 6.274  5.95 0.315 3.188 189.6  1183 533.1 17.28  1.20 0.217  0.22  0.18  0.17  0.15  0.14  0.10  0.08  0.08  0.03
 2020  93   289   289  30.6 1.404  1.40 6.276  5.96 0.310 3.190 189.6  1185 535.0 17.37  1.20 0.216  0.21  0.18  0.16  0.15  0.14  0.10  0.08  0.08  0.03
 2020  94   290   290  31.2 1.406  1.41 6.279  5.97 0.305 3.191 189.6  1186 536.8 17.46  1.20 0.216  0.21  0.18  0.16  0.15  0.13  0.10  0.08  0.08  0.03
 2020  95   291   291  28.9 1.408  1.41 6.283  5.97 0.302 3.194 189.6  1187 538.6 17.55  1.20 0.215  0.21  0.18  0.16  0.15  0.13  0.10  0.08  0.08  0.03
 2020  96   292   292  30.6 1.410  1.41 6.288  5.98 0.299 3.197 189.6  1189 540.4 17.64  1.20 0.215  0.21  0.18  0.16  0.15  0.13  0.10  0.08  0.08  0.03
 2020  97   293   293  30.7 1.412  1.41 6.295  5.99 0.297 3.200 189.6  1190 542.3 17.73  1.20 0.214  0.21  0.18  0.16  0.15  0.13  0.10  0.08  0.08  0.03
 2020  98   294   294  30.8 1.414  1.41 6.299  6.00 0.295 3.203 189.6  1192 544.1 17.82  1.20 0.214  0.21  0.18  0.16  0.15  0.13  0.10  0.08  0.08  0.03
 2020  99   295   295  29.6 1.416  1.42 6.304  6.01 0.289 3.206 189.6  1194 545.9 17.90  1.20 0.213  0.21  0.18  0.16  0.15  0.13  0.10  0.08  0.08  0.03
 2020 100   296   296  29.5 1.417  1.42 6.309  6.02 0.287 3.209 189.6  1195 547.7 17.99  1.20 0.212  0.21  0.18  0.16  0.15  0.13  0.10  0.08  0.07  0.03
 2020 101   297   297  30.4 1.419  1.42 6.311  6.03 0.281 3.210 189.6  1197 549.5 18.08  1.20 0.211  0.21  0.18  0.16  0.15  0.13  0.10  0.08  0.07  0.03
 2020 102   298   298  28.5 1.421  1.42 6.316  6.03 0.279 3.213 189.6  1198 551.2 18.18  1.20 0.210  0.21  0.18  0.16  0.15  0.13  0.10  0.08  0.07  0.03
 2020 103   299   299  30.7 1.424  1.42 6.318  6.04 0.277 3.215 189.6  1199 553.0 18.28  1.20 0.210  0.21  0.18  0.16  0.15  0.13  0.10  0.07  0.07  0.03
 2020 104   300   300  31.5 1.426  1.43 6.322  6.04 0.273 3.217 189.6  1201 554.8 18.37  1.20 0.209  0.21  0.18  0.16  0.15  0.13  0.10  0.07  0.07  0.03
 2020 105   301   301  31.9 1.428  1.43 6.327  6.05 0.272 3.220 185.9  1201 556.5 18.46  1.20 0.209  0.21  0.18  0.16  0.15  0.13  0.09  0.07  0.07  0.03
 2020 106   302   302  31.9 1.430  1.43 6.331  6.05 0.271 3.223 185.9  1203 558.3 18.55  1.20 0.209  0.21  0.18  0.16  0.15  0.13  0.09  0.07  0.07  0.03
 2020 107   303   303  31.5 1.432  1.43 6.338  6.06 0.270 3.227 181.1  1204 560.1 18.62  1.20 0.208  0.21  0.18  0.16  0.15  0.13  0.09  0.07  0.07  0.03
 2020 108   304   304  30.9 1.433  1.43 6.342  6.06 0.272 3.229 181.1  1204 561.8 18.73  1.20 0.208  0.20  0.17  0.16  0.14  0.13  0.09  0.07  0.07  0.03
 2020 109   305   305  31.0 1.435  1.43 6.346  6.07 0.271 3.232 181.1  1206 563.5 18.82  1.20 0.206  0.20  0.17  0.16  0.14  0.13  0.09  0.07  0.07  0.03
 2020 110   306   306  30.0 1.437  1.44 6.349  6.07 0.270 3.234 181.1  1206 565.3 18.93  1.20 0.205  0.20  0.17  0.16  0.14  0.13  0.09  0.07  0.07  0.03
 2020 111   307   307  30.0 1.438  1.44 6.351  6.08 0.265 3.235 181.1  1208 567.0 19.03  1.20 0.203  0.20  0.17  0.16  0.14  0.13  0.09  0.07  0.07  0.03
 2020 112   308   308  31.3 1.440  1.44 6.355  6.09 0.258 3.238 181.1  1210 568.7 19.12  1.20 0.201  0.20  0.17  0.16  0.14  0.13  0.09  0.07  0.07  0.03
 2020 113   309   309  30.7 1.441  1.44 6.358  6.10 0.258 3.239 181.1  1211 570.4 19.23  1.20 0.200  0.20  0.17  0.16  0.14  0.13  0.09  0.07  0.07  0.03
 2020 114   310   310  30.1 1.443  1.44 6.360  6.10 0.254 3.240 181.1  1212 572.1 19.33  1.20 0.198  0.20  0.17  0.15  0.14  0.13  0.09  0.07  0.07  0.03
 2020 115   311   311  30.4 1.444  1.44 6.363  6.11 0.251 3.241 181.1  1213 573.8 19.44  1.20 0.197  0.20  0.17  0.15  0.14  0.13  0.09  0.07  0.07  0.03
 2020 116   312   312  30.5 1.446  1.45 6.368  6.11 0.251 3.245 181.1  1213 575.5 19.54  1.20 0.196  0.20  0.17  0.15  0.14  0.13  0.09  0.07  0.07  0.03
 2020 117   313   313  29.8 1.449  1.45 6.370  6.11 0.252 3.247 181.1  1214 577.2 19.66  1.20 0.196  0.20  0.17  0.15  0.14  0.13  0.09  0.07  0.07  0.03
 2020 118   314   314  29.5 1.451  1.45 6.373  6.12 0.252 3.248 181.1  1214 578.9 19.78  1.20 0.195  0.20  0.17  0.15  0.14  0.13  0.09  0.07  0.07  0.03
 2020 119   315   315  30.4 1.454  1.45 6.377  6.12 0.251 3.252 181.1  1215 580.5 19.88  1.20 0.195  0.20  0.17  0.15  0.14  0.13  0.08  0.07  0.07  0.03
 2020 120   316   316  31.6 1.456  1.46 6.382  6.13 0.247 3.256 181.1  1217 582.2 19.98  1.20 0.195  0.20  0.17  0.15  0.14  0.12  0.08  0.07  0.07  0.03
 2020 121   317   317  29.9 1.458  1.46 6.385  6.14 0.244 3.258 181.1  1218 583.9 20.07  1.20 0.194  0.20  0.17  0.15  0.14  0.12  0.08  0.07  0.07  0.03
 2020 122   318   318  29.9 1.461  1.46 6.389  6.14 0.242 3.261 181.1  1219 585.5 20.18  1.20 0.194  0.20  0.17  0.15  0.14  0.12  0.08  0.07  0.07  0.03
 2020 123   319   319  29.8 1.464  1.46 6.394  6.14 0.243 3.265 181.1  1220 587.2 20.29  1.20 0.194  0.20  0.17  0.15  0.14  0.12  0.08  0.06  0.07  0.03
 2020 124   320   320  28.6 1.466  1.47 6.397  6.15 0.244 3.267 181.1  1220 588.8 20.40  1.20 0.193  0.20  0.17  0.15  0.14  0.12  0.08  0.06  0.07  0.03
 2020 125   321   321  29.0 1.469  1.47 6.402  6.15 0.244 3.271 181.1  1221 590.4 20.51  1.20 0.193  0.19  0.17  0.15  0.14  0.12  0.08  0.06  0.06  0.03
 2020 126   322   322  30.1 1.472  1.47 6.406  6.15 0.245 3.275 181.1  1222 592.1 20.62  1.20 0.192  0.19  0.17  0.15  0.14  0.12  0.08  0.06  0.06  0.03
 2020 127   323   323  30.6 1.475  1.48 6.410  6.16 0.244 3.276 181.1  1223 593.7 20.73  1.20 0.192  0.19  0.17  0.15  0.14  0.12  0.08  0.06  0.06  0.03
 2020 128   324   324  29.9 1.477  1.48 6.414  6.16 0.244 3.280 181.1  1224 595.3 20.84  1.20 0.191  0.19  0.16  0.15  0.14  0.12  0.08  0.06  0.06  0.03
 2020 129   325   325  29.3 1.480  1.48 6.418  6.17 0.242 3.284 181.1  1225 596.9 20.94  1.20 0.191  0.19  0.16  0.15  0.14  0.12  0.08  0.06  0.06  0.03
 2020 130   326   326  28.5 1.482  1.48 6.423  6.18 0.238 3.285 181.1  1226 598.5 21.04  1.20 0.190  0.19  0.16  0.15  0.14  0.12  0.08  0.06  0.06  0.03
 2020 131   327   327  29.5 1.485  1.49 6.427  6.18 0.238 3.289 181.1  1227 600.1 21.15  1.20 0.190  0.19  0.16  0.15  0.14  0.12  0.08  0.06  0.06  0.03
 2020 132   328   328  29.1 1.488  1.49 6.431  6.19 0.238 3.293 181.1  1228 601.7 21.26  1.20 0.189  0.19  0.16  0.15  0.13  0.12  0.08  0.06  0.06  0.03
 2020 133   329   329  29.4 1.491  1.49 6.435  6.19 0.238 3.294 181.1  1228 603.3 21.37  1.20 0.189  0.19  0.16  0.15  0.13  0.12  0.08  0.06  0.06  0.03
 2020 134   330   330  28.5 1.493  1.49 6.439  6.19 0.239 3.298 181.1  1229 604.9 21.49  1.20 0.189  0.19  0.16  0.15  0.13  0.12  0.08  0.06  0.06  0.03
 2020 135   331   331  29.8 1.496  1.50 6.443  6.20 0.238 3.301 181.1  1230 606.5 21.59  1.20 0.188  0.19  0.16  0.14  0.13  0.12  0.08  0.06  0.06  0.03
 2020 136   332   332  29.6 1.498  1.50 6.446  6.21 0.234 3.303 181.1  1231 608.1 21.70  1.20 0.188  0.19  0.16  0.14  0.13  0.12  0.08  0.06  0.06  0.03
 2020 137   333   333  30.0 1.501  1.50 6.450  6.21 0.234 3.307 181.1  1232 609.6 21.81  1.20 0.187  0.19  0.16  0.14  0.13  0.12  0.08  0.06  0.06  0.03
 2020 138   334   334  30.9 1.504  1.50 6.454  6.21 0.234 3.311 181.1  1233 611.2 21.93  1.20 0.187  0.19  0.16  0.14  0.13  0.12  0.08  0.06  0.06  0.03
 2020 139   335   335  30.4 1.506  1.51 6.458  6.22 0.235 3.313 181.1  1234 612.7 22.04  1.20 0.186  0.19  0.16  0.14  0.13  0.12  0.08  0.06  0.06  0.03
 2020 140   336   336  29.4 1.508  1.51 6.462  6.22 0.235 3.316 181.1  1234 614.3 22.16  1.20 0.186  0.19  0.16  0.14  0.13  0.12  0.08  0.06  0.06  0.03
 2020 141   337   337  29.4 1.511  1.51 6.466  6.22 0.235 3.320 181.1  1235 615.8 22.28  1.20 0.185  0.19  0.16  0.14  0.13  0.12  0.08  0.06  0.06  0.03
 2020 142   338   338  29.4 1.514  1.51 6.469  6.23 0.235 3.321 181.1  1236 617.4 22.40  1.20 0.185  0.18  0.16  0.14  0.13  0.12  0.08  0.06  0.06  0.03
 2020 143   339   339  29.8 1.517  1.52 6.473  6.23 0.235 3.326 181.1  1236 618.9 22.51  1.20 0.184  0.18  0.16  0.14  0.13  0.12  0.08  0.06  0.06  0.03
 2020 144   340   340  30.4 1.520  1.52 6.477  6.24 0.235 3.330 181.1  1237 620.4 22.63  1.20 0.184  0.18  0.16  0.14  0.13  0.12  0.08  0.06  0.06  0.03
 2020 145   341   341  28.2 1.523  1.52 6.480  6.24 0.236 3.332 181.1  1238 622.0 22.75  1.20 0.183  0.18  0.16  0.14  0.13  0.12  0.08  0.06  0.06  0.03
 2020 146   342   342  28.1 1.526  1.53 6.484  6.24 0.234 3.335 181.1  1239 623.5 22.86  1.20 0.183  0.18  0.16  0.14  0.13  0.11  0.08  0.06  0.06  0.03
 2020 147   343   343  30.4 1.529  1.53 6.488  6.25 0.233 3.339 181.1  1239 625.0 22.98  1.20 0.182  0.18  0.15  0.14  0.13  0.11  0.08  0.06  0.06  0.03
 2020 148   344   344  29.5 1.532  1.53 6.494  6.25 0.232 3.343 181.1  1240 626.5 23.08  1.20 0.182  0.18  0.15  0.14  0.13  0.11  0.08  0.06  0.06  0.03
 2020 149   345   345  28.3 1.535  1.54 6.498  6.26 0.232 3.347 181.1  1242 628.0 23.19  1.20 0.181  0.18  0.15  0.14  0.13  0.11  0.08  0.06  0.06  0.03
 2020 150   346   346  28.6 1.539  1.54 6.502  6.26 0.231 3.351 181.1  1242 629.5 23.31  1.20 0.181  0.18  0.15  0.14  0.13  0.11  0.08  0.06  0.06  0.03
 2020 151   347   347  29.2 1.542  1.54 6.505  6.27 0.232 3.355 181.1  1243 631.0 23.43  1.20 0.180  0.18  0.15  0.14  0.13  0.11  0.08  0.06  0.06  0.03
 2020 152   348   348  30.0 1.545  1.54 6.509  6.27 0.234 3.359 181.1  1243 632.5 23.56  1.20 0.179  0.18  0.15  0.14  0.13  0.11  0.08  0.06  0.06  0.03
 2020 153   349   349  26.3 1.548  1.55 6.513  6.27 0.237 3.362 181.1  1244 634.0 23.69  1.20 0.179  0.18  0.15  0.14  0.13  0.11  0.08  0.06  0.06  0.03
 2020 154   350   350  28.0 1.552  1.55 6.519  6.27 0.237 3.366 181.1  1244 635.4 23.80  1.20 0.178  0.18  0.15  0.14  0.12  0.11  0.08  0.06  0.05  0.03
 2020 155   351   351  29.0 1.555  1.55 6.522  6.28 0.239 3.370 181.1  1245 636.9 23.92  1.20 0.178  0.18  0.15  0.13  0.12  0.11  0.08  0.06  0.05  0.03
 2020 156   352   352  28.2 1.558  1.56 6.526  6.28 0.240 3.374 181.1  1245 638.4 24.04  1.20 0.177  0.17  0.15  0.13  0.12  0.11  0.08  0.06  0.05  0.03
 2020 157   353   353  29.1 1.561  1.56 6.532  6.29 0.238 3.378 181.1  1247 639.8 24.15  1.20 0.177  0.17  0.15  0.13  0.12  0.11  0.08  0.06  0.05  0.03
 2020 158   354   354  27.6 1.565  1.56 6.537  6.29 0.240 3.383 181.1  1247 641.3 24.26  1.20 0.176  0.17  0.15  0.13  0.12  0.11  0.08  0.06  0.05  0.03
 2020 159   355   355  28.0 1.568  1.57 6.541  6.29 0.242 3.387 181.1  1248 642.7 24.38  1.20 0.176  0.17  0.15  0.13  0.12  0.11  0.08  0.06  0.05  0.03
 2020 160   356   356  27.9 1.571  1.57 6.546  6.30 0.239 3.390 181.1  1249 644.2 24.49  1.20 0.175  0.17  0.15  0.13  0.12  0.11  0.08  0.06  0.05  0.03
 2020 161   357   357  28.0 1.575  1.57 6.550  6.30 0.240 3.394 181.1  1250 645.6 24.61  1.20 0.175  0.17  0.15  0.13  0.12  0.11  0.08  0.06  0.05  0.03
 2020 162   358   358  28.2 1.578  1.58 6.553  6.31 0.240 3.398 181.1  1251 647.1 24.73  1.20 0.174  0.17  0.15  0.13  0.12  0.11  0.08  0.06  0.05  0.03
 2020 163   359   359  26.5 1.582  1.58 6.558  6.31 0.241 3.401 181.1  1251 648.5 24.85  1.20 0.173  0.17  0.15  0.13  0.12  0.11  0.08  0.06  0.05  0.03
 2020 164   360   360  27.2 1.585  1.59 6.562  6.31 0.245 3.405 181.1  1251 649.9 24.99  1.20 0.173  0.17  0.14  0.13  0.12  0.11  0.08  0.06  0.05  0.03
 2020 165   361   361  27.3 1.589  1.59 6.565  6.31 0.248 3.408 181.1  1251 651.3 25.13  1.20 0.172  0.17  0.14  0.13  0.12  0.11  0.08  0.06  0.05  0.03
 2020 166   362   362  27.9 1.592  1.59 6.569  6.31 0.248 3.412 181.1  1252 652.8 25.25  1.20 0.172  0.17  0.14  0.13  0.12  0.11  0.08  0.06  0.05  0.03
 2020 167   363   363  29.2 1.596  1.60 6.571  6.32 0.249 3.414 181.1  1253 654.2 25.39  1.20 0.171  0.17  0.14  0.13  0.12  0.11  0.08  0.06  0.05  0.03
 2020 168   364   364  28.6 1.599  1.60 6.575  6.32 0.245 3.418 181.1  1254 655.6 25.51  1.20 0.170  0.17  0.14  0.13  0.12  0.11  0.08  0.06  0.05  0.03
 2020 169   365   365  28.5 1.602  1.60 6.578  6.33 0.242 3.421 181.1  1255 657.0 25.62  1.20 0.170  0.17  0.14  0.13  0.12  0.10  0.08  0.06  0.05  0.03
 2020 170   366   366  27.0 1.606  1.61 6.582  6.33 0.243 3.423 181.1  1255 658.4 25.75  1.20 0.169  0.17  0.14  0.13  0.12  0.10  0.08  0.06  0.05  0.03
 2020 171   367   367  28.0 1.609  1.61 6.585  6.34 0.243 3.427 181.1  1256 659.8 25.88  1.20 0.169  0.16  0.14  0.13  0.12  0.10  0.07  0.06  0.05  0.03
 2020 172   368   368  28.2 1.613  1.61 6.589  6.34 0.242 3.431 181.1  1257 661.2 26.01  1.20 0.168  0.16  0.14  0.13  0.12  0.10  0.07  0.05  0.05  0.03
 2020 173   369   369  27.6 1.616  1.62 6.593  6.34 0.242 3.434 181.1  1257 662.5 26.13  1.20 0.168  0.16  0.14  0.13  0.12  0.10  0.07  0.05  0.05  0.03
 2020 174   370   370  26.6 1.619  1.62 6.598  6.35 0.244 3.439 181.1  1258 663.9 26.25  1.20 0.167  0.16  0.14  0.13  0.12  0.10  0.07  0.05  0.05  0.03
 2020 175   371   371  27.5 1.623  1.62 6.602  6.35 0.247 3.443 181.1  1258 665.3 26.38  1.20 0.166  0.16  0.14  0.12  0.11  0.10  0.07  0.05  0.05  0.03
 2020 176   372   372  26.8 1.627  1.63 6.605  6.35 0.249 3.446 181.1  1259 666.7 26.52  1.20 0.166  0.16  0.14  0.12  0.11  0.10  0.07  0.05  0.05  0.02
 2020 177   373   373  27.2 1.630  1.63 6.609  6.35 0.252 3.448 181.1  1259 668.0 26.67  1.20 0.165  0.16  0.14  0.12  0.11  0.10  0.07  0.05  0.05  0.02
 2020 178   374   374  26.5 1.634  1.63 6.612  6.35 0.254 3.451 181.1  1259 669.4 26.80  1.20 0.165  0.16  0.14  0.12  0.11  0.10  0.07  0.05  0.05  0.02
 2020 179   375   375  27.4 1.638  1.64 6.615  6.36 0.255 3.455 181.1  1260 670.7 26.93  1.20 0.164  0.16  0.14  0.12  0.11  0.10  0.07  0.05  0.05  0.02
 2020 180   376   376  26.6 1.641  1.64 6.619  6.36 0.256 3.458 181.1  1260 672.0 27.05  1.20 0.164  0.16  0.14  0.12  0.11  0.10  0.07  0.05  0.05  0.02
 2020 181   377   377  26.0 1.645  1.64 6.623  6.36 0.258 3.461 181.1  1260 673.3 27.18  1.20 0.163  0.16  0.14  0.12  0.11  0.10  0.07  0.05  0.05  0.02
 2020 182   378   378  27.2 1.649  1.65 6.626  6.36 0.258 3.465 181.1  1261 674.5 27.30  1.20 0.163  0.16  0.14  0.12  0.11  0.10  0.07  0.05  0.05  0.02
 2020 183   379   379  28.1 1.652  1.65 6.629  6.36 0.259 3.469 181.1  1261 675.8 27.43  1.20 0.162  0.16  0.13  0.12  0.11  0.10  0.07  0.05  0.05  0.02
 2020 184   380   380  28.5 1.656  1.66 6.632  6.37 0.259 3.470 181.1  1262 677.1 27.57  1.20 0.162  0.16  0.13  0.12  0.11  0.10  0.07  0.05  0.05  0.02
 2020 185   381   381  26.7 1.659  1.66 6.635  6.37 0.260 3.474 181.1  1262 678.5 27.70  1.20 0.161  0.16  0.13  0.12  0.11  0.10  0.07  0.05  0.05  0.02
 2020 186   382   382  25.2 1.663  1.66 6.639  6.37 0.260 3.477 181.1  1263 679.8 27.84  1.20 0.161  0.16  0.13  0.12  0.11  0.10  0.07  0.05  0.05  0.02
 2020 187   383   383  26.8 1.667  1.67 6.642  6.38 0.260 3.480 181.1  1264 681.1 27.96  1.20 0.160  0.16  0.13  0.12  0.11  0.10  0.07  0.05  0.05  0.02
 2020 188   384   384  27.3 1.670  1.67 6.645  6.38 0.260 3.482 181.1  1264 682.3 28.10  1.20 0.160  0.15  0.13  0.12  0.11  0.10  0.07  0.05  0.05  0.02
 2020 189   385   385  26.6 1.674  1.67 6.648  6.38 0.261 3.485 181.1  1265 683.6 28.22  1.20 0.159  0.15  0.13  0.12  0.11  0.10  0.07  0.05  0.05  0.02
 2020 190   386   386  27.0 1.677  1.68 6.652  6.39 0.260 3.489 181.1  1265 684.8 28.34  1.20 0.159  0.15  0.13  0.12  0.11  0.10  0.07  0.05  0.05  0.02
 2020 191   387   387  27.0 1.681  1.68 6.655  6.39 0.260 3.492 181.1  1266 686.0 28.47  1.20 0.158  0.15  0.13  0.12  0.11  0.10  0.07  0.05  0.05  0.02
 2020 192   388   388  24.8 1.685  1.68 6.658  6.39 0.261 3.494 181.1  1267 687.3 28.60  1.20 0.158  0.15  0.13  0.12  0.11  0.10  0.07  0.05  0.05  0.02
 2020 193   389   389  25.5 1.689  1.69 6.661  6.39 0.262 3.497 181.1  1267 688.5 28.72  1.20 0.157  0.15  0.13  0.12  0.11  0.10  0.07  0.05  0.05  0.02
 2020 194   390   390  26.5 1.693  1.69 6.664  6.40 0.260 3.500 181.1  1268 689.6 28.83  1.20 0.157  0.15  0.13  0.12  0.11  0.10  0.07  0.05  0.05  0.02
 2020 195   391   391  26.8 1.697  1.70 6.668  6.40 0.260 3.504 181.1  1269 690.8 28.94  1.20 0.156  0.15  0.13  0.12  0.11  0.10  0.07  0.05  0.05  0.02
 2020 196   392   392  25.5 1.700  1.70 6.670  6.40 0.261 3.505 181.1  1269 691.9 29.06  1.20 0.156  0.15  0.13  0.12  0.11  0.10  0.07  0.05  0.05  0.02
 2020 197   393   393  25.8 1.704  1.70 6.674  6.41 0.261 3.508 181.1  1270 693.1 29.17  1.20 0.156  0.15  0.13  0.12  0.11  0.09  0.07  0.05  0.05  0.02
 2020 198   394   394  26.5 1.708  1.71 6.677  6.41 0.259 3.512 181.1  1271 694.2 29.28  1.20 0.155  0.15  0.13  0.11  0.11  0.09  0.07  0.05  0.05  0.02
 2020 199   395   395  26.0 1.712  1.71 6.680  6.42 0.259 3.515 181.1  1271 695.3 29.39  1.20 0.155  0.15  0.13  0.11  0.11  0.09  0.07  0.05  0.05  0.02
 2020 200   396   396  26.5 1.716  1.72 6.682  6.42 0.260 3.517 181.1  1272 696.5 29.51  1.20 0.154  0.15  0.13  0.11  0.11  0.09  0.07  0.05  0.05  0.02
 2020 201   397   397  26.3 1.719  1.72 6.686  6.42 0.258 3.520 181.1  1272 697.6 29.63  1.20 0.154  0.15  0.13  0.11  0.10  0.09  0.07  0.05  0.05  0.02
 2020 202   398   398  25.8 1.723  1.72 6.689  6.43 0.258 3.523 181.1  1273 698.8 29.75  1.20 0.154  0.15  0.13  0.11  0.10  0.09  0.07  0.05  0.05  0.02
 2020 203   399   399  26.5 1.727  1.73 6.692  6.43 0.258 3.526 181.1  1274 699.9 29.87  1.20 0.153  0.15  0.13  0.11  0.10  0.09  0.07  0.05  0.05  0.02
 2020 204   400   400  27.0 1.731  1.73 6.694  6.43 0.259 3.528 181.1  1274 701.1 30.00  1.20 0.153  0.15  0.13  0.11  0.10  0.09  0.07  0.05  0.05  0.02
 2020 205   401   401  25.2 1.735  1.73 6.697  6.43 0.257 3.531 181.1  1275 702.2 30.12  1.20 0.152  0.15  0.12  0.11  0.10  0.09  0.07  0.05  0.05  0.02
 2020 206   402   402  26.2 1.739  1.74 6.700  6.44 0.257 3.534 181.1  1275 703.4 30.24  1.20 0.152  0.15  0.12  0.11  0.10  0.09  0.07  0.05  0.05  0.02
 2020 207   403   403  25.8 1.742  1.74 6.703  6.44 0.257 3.538 181.1  1276 704.5 30.36  1.20 0.151  0.15  0.12  0.11  0.10  0.09  0.07  0.05  0.05  0.02
 2020 208   404   404  26.8 1.746  1.75 6.705  6.44 0.258 3.539 181.1  1276 705.6 30.50  1.20 0.151  0.14  0.12  0.11  0.10  0.09  0.07  0.05  0.05  0.02
 2020 209   405   405  25.0 1.750  1.75 6.707  6.45 0.256 3.541 181.1  1277 706.7 30.63  1.20 0.150  0.14  0.12  0.11  0.10  0.09  0.07  0.05  0.05  0.02

*DSSAT Cropping System Model Ver. 4.8.0.019 -develop  JAN 07, 2022 20:10:06

*RUN   2        : TMEB419                   CSYCA048 UYAG1701    5
 MODEL          : CSYCA048 - Cassava
 EXPERIMENT     : UYAG1701 CS UYT_GXE
 DATA PATH      :
 TREATMENT  5   : TMEB419                   CSYCA048
  
@YEAR DOY   DAS   DAP TMEAN  GSTD  RSTD LAIPD LAISD  LAID  CHTD SDWAD SNWLD SNWSD SHRTD  RDPD  RL1D  RL2D  RL3D  RL4D  RL5D  RL6D  RL7D  RL8D  RL9D RL10D
 2019 169     0     0  28.9     0  0.00     0  0.00     0     0 450.0     0     0  0.00  0.20 0.000  0.00  0.00  0.00  0.00  0.00  0.00  0.00  0.00  0.00
 2019 170     1     1  29.0     0  0.00     0  0.00     0     0 450.0     0     0  0.00  0.20 0.000  0.00  0.00  0.00  0.00  0.00  0.00  0.00  0.00  0.00
 2019 171     2     2  26.7     0  0.00     0  0.00     0     0 450.0     0     0  0.00  0.20 0.000  0.00  0.00  0.00  0.00  0.00  0.00  0.00  0.00  0.00
 2019 172     3     3  27.7     0  0.00     0  0.00     0     0 450.0     0     0  0.00  0.20 0.000  0.00  0.00  0.00  0.00  0.00  0.00  0.00  0.00  0.00
 2019 173     4     4  25.8     0  0.00     0  0.00     0     0 450.0     0     0  0.00  0.20 0.000  0.00  0.00  0.00  0.00  0.00  0.00  0.00  0.00  0.00
 2019 174     5     5  27.6     0  0.00     0  0.00     0     0 450.0     0     0  0.00  0.20 0.000  0.00  0.00  0.00  0.00  0.00  0.00  0.00  0.00  0.00
 2019 175     6     6  24.4     0  0.00     0  0.00     0     0 450.0     0     0  0.00  0.20 0.000  0.00  0.00  0.00  0.00  0.00  0.00  0.00  0.00  0.00
 2019 176     7     7  26.4     0  0.00     0  0.00     0     0 450.0     0     0  0.00  0.20 0.000  0.00  0.00  0.00  0.00  0.00  0.00  0.00  0.00  0.00
 2019 177     8     8  25.0     0  0.00     0  0.00     0     0 442.6     0     0  0.00  0.21 0.000  0.00  0.00  0.00  0.00  0.00  0.00  0.00  0.00  0.00
 2019 178     9     9  25.0 .0084  0.01     0  0.00     0     0 442.6     0     0  0.00  0.22 0.000  0.00  0.00  0.00  0.00  0.00  0.00  0.00  0.00  0.00
 2019 179    10    10  26.4 .0168  0.02     0  0.00     0     0 442.6     0     0  0.00  0.24 0.000  0.00  0.00  0.00  0.00  0.00  0.00  0.00  0.00  0.00
 2019 180    11    11  27.3 .0246  0.02     0  0.00     0     0 442.6     0     0  0.00  0.25 0.000  0.00  0.00  0.00  0.00  0.00  0.00  0.00  0.00  0.00
 2019 181    12    12  27.4 .0319  0.03 .0045  0.00     0 .0035 436.4     0     0783.00  0.26 0.001  0.00  0.00  0.00  0.00  0.00  0.00  0.00  0.00  0.00
 2019 182    13    13  25.8 .0392  0.04 .0104  0.00 .0045 .0099 428.7     0 .0044351.81  0.27 0.003  0.00  0.00  0.00  0.00  0.00  0.00  0.00  0.00  0.00
 2019 183    14    14  26.5 .0472  0.05 .0224  0.00 .0104 .0232 417.0     0 .0143184.12  0.29 0.005  0.00  0.00  0.00  0.00  0.00  0.00  0.00  0.00  0.00
 2019 184    15    15  26.8 .0549  0.05 .0382  0.00 .0224 .0402 403.1     0 .0333116.59  0.30 0.008  0.01  0.01  0.01  0.00  0.00  0.00  0.00  0.00  0.00
 2019 185    16    16  26.8 .0625  0.06 .0553  0.00 .0382 .0605 389.6     0 .0630 83.81  0.31 0.011  0.01  0.01  0.01  0.01  0.00  0.00  0.00  0.00  0.00
 2019 186    17    17  25.7 .0701  0.07 .0796  0.00 .0553 .0858 373.1     0 0.104 61.04  0.33 0.015  0.01  0.01  0.01  0.01  0.00  0.00  0.00  0.00  0.00
 2019 187    18    18  27.2 .0781  0.08 0.108  0.00 .0796 0.117 355.7     0 0.161 47.26  0.34 0.020  0.02  0.01  0.01  0.01  0.00  0.00  0.00  0.00  0.00
 2019 188    19    19  27.2 .0855  0.09 0.138  0.00 0.108 0.149 339.0     0 0.236 38.50  0.35 0.024  0.02  0.02  0.02  0.01  0.01  0.00  0.00  0.00  0.00
 2019 189    20    20  23.8 .0929  0.09 0.166  0.00 0.138 0.173 327.9     0 0.326 33.03  0.36 0.029  0.02  0.02  0.02  0.02  0.01  0.00  0.00  0.00  0.00
 2019 190    21    21  26.4 0.101  0.10 0.200  0.00 0.166 0.206 315.9     0 0.433 28.72  0.37 0.034  0.03  0.02  0.02  0.02  0.01  0.00  0.00  0.00  0.00
 2019 191    22    22  26.0 0.109  0.11 0.233  0.00 0.200 0.235 309.3     0 0.560 25.93  0.38 0.038  0.03  0.03  0.03  0.02  0.01  0.00  0.00  0.00  0.00
 2019 192    23    23  24.4 0.117  0.12 0.268  0.00 0.233 0.261 301.3     0 0.701 23.61  0.39 0.043  0.04  0.03  0.03  0.03  0.02  0.01  0.00  0.00  0.00
 2019 193    24    24  25.5 0.125  0.13 0.303  0.00 0.268 0.289 298.5     0 0.859 22.02  0.41 0.048  0.04  0.04  0.03  0.03  0.02  0.01  0.00  0.00  0.00
 2019 194    25    25  26.5 0.134  0.13 0.337  0.00 0.303 0.315 298.5     0 1.045 20.93  0.41 0.053  0.05  0.04  0.04  0.03  0.02  0.01  0.00  0.00  0.00
 2019 195    26    26  26.0 0.141  0.14 0.373  0.00 0.337 0.341 298.5     0 1.252 19.99  0.42 0.058  0.05  0.04  0.04  0.03  0.02  0.01  0.00  0.00  0.00
 2019 196    27    27  26.2 0.149  0.15 0.406  0.00 0.373 0.367 298.5     0 1.481 19.26  0.43 0.062  0.05  0.05  0.04  0.04  0.03  0.02  0.00  0.00  0.00
 2019 197    28    28  27.5 0.157  0.16 0.450  0.00 0.406 0.403 297.4     0 1.744 18.47  0.44 0.068  0.06  0.05  0.04  0.04  0.03  0.02  0.00  0.00  0.00
 2019 198    29    29  27.4 0.164  0.16 0.488  0.00 0.450 0.431 297.4     0 2.043 17.93  0.45 0.072  0.06  0.05  0.05  0.04  0.03  0.02  0.00  0.00  0.00
 2019 199    30    30  26.5 0.172  0.17 0.529  0.00 0.488 0.458 297.4     0 2.365 17.43  0.46 0.077  0.07  0.06  0.05  0.05  0.04  0.02  0.00  0.00  0.00
 2019 200    31    31  24.8 0.179  0.18 0.571  0.00 0.529 0.481 297.4     0 2.705 16.96  0.47 0.083  0.07  0.06  0.05  0.05  0.04  0.03  0.00  0.00  0.00
 2019 201    32    32  26.0 0.188  0.19 0.614  0.00 0.571 0.507 297.4     0 3.072 16.57  0.48 0.088  0.08  0.06  0.06  0.05  0.04  0.03  0.00  0.00  0.00
 2019 202    33    33  26.4 0.196  0.20 0.654  0.00 0.614 0.534 297.4     0 3.460 16.25  0.49 0.093  0.08  0.07  0.06  0.06  0.04  0.03  0.01  0.00  0.00
 2019 203    34    34  25.7 0.203  0.20 0.701  0.00 0.654 0.562 297.4     0 3.858 15.92  0.50 0.098  0.08  0.07  0.07  0.06  0.05  0.03  0.01  0.00  0.00
 2019 204    35    35  26.8 0.211  0.21 0.745  0.00 0.701 0.589 297.4     0 4.288 15.66  0.51 0.103  0.09  0.08  0.07  0.06  0.05  0.04  0.01  0.00  0.00
 2019 205    36    36  27.7 0.219  0.22 0.791  0.00 0.745 0.618 297.4     0 4.762 15.43  0.52 0.108  0.09  0.08  0.07  0.06  0.05  0.04  0.01  0.00  0.00
 2019 206    37    37  24.8 0.226  0.23 0.838  0.00 0.791 0.642 297.4     0 5.250 15.20  0.53 0.114  0.10  0.08  0.08  0.07  0.06  0.04  0.01  0.00  0.00
 2019 207    38    38  25.8 0.235  0.23 0.887  0.00 0.838 0.667 297.4     0 5.757 14.99  0.54 0.119  0.10  0.09  0.08  0.07  0.06  0.04  0.01  0.00  0.00
 2019 208    39    39  25.9 0.243  0.24 0.937  0.00 0.887 0.692 297.4     0 6.291 14.81  0.55 0.125  0.11  0.09  0.08  0.07  0.06  0.05  0.02  0.00  0.00
 2019 209    40    40  26.1 0.251  0.25 0.988  0.00 0.937 0.718 297.4     0 6.842 14.64  0.56 0.130  0.11  0.10  0.09  0.08  0.07  0.05  0.02  0.00  0.00
 2019 210    41    41  26.2 0.259  0.26 1.041  0.00 0.988 0.744 297.4     0 7.409 14.49  0.57 0.136  0.12  0.10  0.09  0.08  0.07  0.05  0.02  0.00  0.00
 2019 211    42    42  26.5 0.266  0.27 1.090  0.00 1.041 0.767 297.4     0 8.024 14.37  0.58 0.141  0.12  0.10  0.09  0.08  0.07  0.06  0.02  0.00  0.00
 2019 212    43    43  26.2 0.273  0.27 1.140  0.00 1.090 0.788 297.4     0 8.672 14.26  0.59 0.146  0.13  0.11  0.10  0.09  0.07  0.06  0.02  0.00  0.00
 2019 213    44    44  25.8 0.279  0.28 1.190  0.00 1.140 0.808 297.4     0 9.350 14.16  0.60 0.148  0.13  0.11  0.10  0.09  0.08  0.06  0.03  0.00  0.00
 2019 214    45    45  25.1 0.287  0.29 1.241  0.00 1.190 0.829 297.4     0 10.05 14.07  0.61 0.153  0.14  0.12  0.10  0.09  0.08  0.06  0.03  0.00  0.00
 2019 215    46    46  25.8 0.296  0.30 1.292  0.00 1.241 0.851 297.4     0 10.78 13.98  0.62 0.159  0.14  0.12  0.11  0.10  0.08  0.07  0.03  0.00  0.00
 2019 216    47    47  26.0 0.304  0.30 1.344  0.00 1.292 0.874 297.4     0 11.53 13.91  0.63 0.164  0.14  0.12  0.11  0.10  0.09  0.07  0.03  0.00  0.00
 2019 217    48    48  25.8 0.311  0.31 1.397  0.00 1.344 0.895 297.4     0 12.31 13.84  0.63 0.169  0.15  0.13  0.11  0.10  0.09  0.07  0.03  0.01  0.00
 2019 218    49    49  25.8 0.319  0.32 1.450  0.00 1.397 0.917 297.4     0 13.11 13.77  0.64 0.174  0.15  0.13  0.12  0.11  0.09  0.07  0.04  0.01  0.00
 2019 219    50    50  24.2 0.327  0.33 1.504  0.00 1.450 0.937 297.4     0 13.92 13.71  0.65 0.179  0.16  0.13  0.12  0.11  0.09  0.08  0.04  0.01  0.00
 2019 220    51    51  24.7 0.336  0.34 1.558  0.00 1.504 0.957 297.4     0 14.74 13.65  0.66 0.185  0.16  0.14  0.12  0.11  0.10  0.08  0.04  0.01  0.00
 2019 221    52    52  25.6 0.344  0.34 1.612  0.00 1.558 0.979 297.4     0 15.58 13.60  0.67 0.190  0.17  0.14  0.13  0.12  0.10  0.08  0.04  0.01  0.00
 2019 222    53    53  26.4 0.352  0.35 1.667  0.00 1.612 1.002 297.4     0 16.45 13.55  0.68 0.195  0.17  0.15  0.13  0.12  0.10  0.09  0.04  0.01  0.00
 2019 223    54    54  26.5 0.360  0.36 1.723  0.00 1.667 1.026 297.4     0 17.37 13.51  0.69 0.200  0.18  0.15  0.13  0.12  0.11  0.09  0.05  0.02  0.00
 2019 224    55    55  24.9 0.368  0.37 1.779  0.00 1.723 1.046 297.4     0 18.33 13.48  0.70 0.205  0.18  0.15  0.14  0.13  0.11  0.09  0.05  0.02  0.00
 2019 225    56    56  26.2 0.376  0.38 1.835  0.00 1.779 1.069 297.4     0 19.36 13.45  0.71 0.210  0.18  0.16  0.14  0.13  0.11  0.09  0.05  0.02  0.00
 2019 226    57    57  26.5 0.384  0.38 1.893  0.00 1.835 1.093 297.4     0 20.44 13.43  0.72 0.215  0.19  0.16  0.14  0.13  0.11  0.10  0.05  0.02  0.00
 2019 227    58    58  25.3 0.392  0.39 1.950  0.00 1.893 1.114 297.4     0 21.54 13.41  0.72 0.220  0.19  0.16  0.15  0.14  0.12  0.10  0.05  0.02  0.00
 2019 228    59    59  25.3 0.400  0.40 2.008  0.00 1.950 1.135 297.4     0 22.66 13.39  0.73 0.225  0.20  0.17  0.15  0.14  0.12  0.10  0.06  0.03  0.00
 2019 229    60    60  26.4 0.408  0.41 2.076  0.00 2.008 1.159 297.4     0 23.83 13.36  0.74 0.231  0.20  0.17  0.16  0.14  0.12  0.10  0.06  0.03  0.00
 2019 230    61    61  25.7 0.415  0.42 2.134  0.00 2.068 1.177 297.4     0 25.03 13.35  0.75 0.235  0.21  0.18  0.16  0.14  0.13  0.11  0.06  0.03  0.00
 2019 231    62    62  25.3 0.423  0.42 2.193  0.00 2.134 1.195 297.4     0 26.25 13.34  0.76 0.240  0.21  0.18  0.16  0.15  0.13  0.11  0.06  0.03  0.00
 2019 232    63    63  26.8 0.432  0.43 2.260  0.00 2.193 1.219 297.4     0 27.51 13.32  0.77 0.246  0.21  0.18  0.17  0.15  0.13  0.11  0.06  0.04  0.00
 2019 233    64    64  26.4 0.439  0.44 2.327  0.00 2.260 1.242 297.4     0 28.82 13.31  0.78 0.251  0.22  0.19  0.17  0.15  0.13  0.11  0.07  0.04  0.00
 2019 234    65    65  25.8 0.447  0.45 2.395  0.00 2.327 1.264 297.4     0 30.17 13.30  0.79 0.257  0.22  0.19  0.17  0.16  0.14  0.12  0.07  0.04  0.00
 2019 235    66    66  25.6 0.455  0.46 2.463  0.00 2.395 1.286 297.4     0 31.54 13.29  0.80 0.262  0.23  0.20  0.18  0.16  0.14  0.12  0.07  0.04  0.00
 2019 236    67    67  25.5 0.463  0.46 2.530  0.00 2.463 1.308 297.4     0 32.95 13.29  0.81 0.267  0.23  0.20  0.18  0.16  0.14  0.12  0.07  0.04  0.00
 2019 237    68    68  25.6 0.471  0.47 2.588  0.00 2.530 1.327 297.4     0 34.37 13.29  0.82 0.272  0.24  0.20  0.18  0.17  0.15  0.12  0.07  0.05  0.00
 2019 238    69    69  25.9 0.479  0.48 2.655  0.00 2.588 1.349 297.4     0 35.82 13.29  0.82 0.277  0.24  0.21  0.19  0.17  0.15  0.13  0.08  0.05  0.00
 2019 239    70    70  24.7 0.487  0.49 2.733  0.00 2.655 1.369 297.4     0 37.27 13.27  0.83 0.284  0.25  0.21  0.19  0.17  0.15  0.13  0.08  0.05  0.00
 2019 240    71    71  26.3 0.496  0.50 2.798  0.00 2.724 1.389 297.4     0 38.78 13.28  0.84 0.288  0.25  0.21  0.19  0.18  0.15  0.13  0.08  0.05  0.01
 2019 241    72    72  26.9 0.504  0.50 2.862  0.00 2.798 1.410 297.4     0 40.37 13.29  0.85 0.293  0.26  0.22  0.20  0.18  0.16  0.14  0.08  0.06  0.01
 2019 242    73    73  26.9 0.511  0.51 2.925  0.00 2.862 1.430 297.4     0 42.03 13.30  0.86 0.298  0.26  0.22  0.20  0.18  0.16  0.14  0.08  0.06  0.01
 2019 243    74    74  25.8 0.519  0.52 2.986  0.00 2.925 1.450 297.4     0 43.70 13.32  0.87 0.302  0.26  0.22  0.20  0.19  0.16  0.14  0.09  0.06  0.01
 2019 244    75    75  26.2 0.527  0.53 3.044  0.00 2.986 1.469 297.4     0 45.45 13.35  0.88 0.306  0.27  0.23  0.20  0.19  0.16  0.14  0.09  0.06  0.01
 2019 245    76    76  26.1 0.534  0.53 3.109  0.00 3.044 1.492 297.4     0 47.22 13.36  0.89 0.311  0.27  0.23  0.21  0.19  0.17  0.14  0.09  0.06  0.01
 2019 246    77    77  27.0 0.542  0.54 3.171  0.00 3.109 1.516 297.4     0 49.01 13.38  0.90 0.315  0.27  0.23  0.21  0.19  0.17  0.15  0.09  0.06  0.01
 2019 247    78    78  27.1 0.550  0.55 3.228  0.00 3.171 1.537 297.4     0 50.84 13.41  0.91 0.319  0.28  0.24  0.21  0.20  0.17  0.15  0.09  0.07  0.01
 2019 248    79    79  26.0 0.557  0.56 3.285  0.00 3.221 1.556 297.4     0 52.71 13.44  0.92 0.322  0.28  0.24  0.22  0.20  0.17  0.15  0.09  0.07  0.01
 2019 249    80    80  26.9 0.565  0.57 3.338  0.00 3.285 1.577 297.4     0 54.63 13.47  0.93 0.326  0.28  0.24  0.22  0.20  0.18  0.15  0.09  0.07  0.01
 2019 250    81    81  27.0 0.573  0.57 3.388  0.00 3.338 1.597 297.4     0 56.62 13.51  0.94 0.329  0.29  0.24  0.22  0.20  0.18  0.15  0.10  0.07  0.01
 2019 251    82    82  26.0 0.580  0.58 3.435  0.00 3.388 1.617 297.4     0 58.61 13.55  0.95 0.331  0.29  0.25  0.22  0.20  0.18  0.16  0.10  0.07  0.01
 2019 252    83    83  25.5 0.588  0.59 3.479  0.00 3.435 1.635 297.4     0 60.58 13.60  0.96 0.334  0.29  0.25  0.22  0.20  0.18  0.16  0.10  0.07  0.01
 2019 253    84    84  26.1 0.596  0.60 3.521  0.00 3.479 1.655 297.4     0 62.58 13.64  0.97 0.337  0.29  0.25  0.22  0.21  0.18  0.16  0.10  0.07  0.01
 2019 254    85    85  26.0 0.604  0.60 3.567  0.00 3.521 1.674 297.4     0 64.55 13.68  0.98 0.339  0.30  0.25  0.23  0.21  0.18  0.16  0.10  0.08  0.02
 2019 255    86    86  26.8 0.612  0.61 3.604  0.00 3.562 1.691 297.4     0 66.54 13.73  0.98 0.341  0.30  0.25  0.23  0.21  0.18  0.16  0.10  0.08  0.02
 2019 256    87    87  27.6 0.620  0.62 3.647  0.00 3.604 1.713 297.4     0 68.58 13.77  0.99 0.344  0.30  0.26  0.23  0.21  0.19  0.16  0.10  0.08  0.02
 2019 257    88    88  27.0 0.627  0.63 3.687  0.00 3.647 1.733 297.4     0 70.68 13.82  1.00 0.346  0.30  0.26  0.23  0.21  0.19  0.16  0.10  0.08  0.02
 2019 258    89    89  26.6 0.634  0.63 3.725  0.00 3.687 1.754 297.4     0 72.80 13.87  1.01 0.348  0.30  0.26  0.23  0.21  0.19  0.16  0.10  0.08  0.02
 2019 259    90    90  25.6 0.642  0.64 3.761  0.00 3.725 1.772 297.4     0 74.94 13.92  1.02 0.349  0.30  0.26  0.23  0.21  0.19  0.16  0.10  0.08  0.02
 2019 260    91    91  26.7 0.650  0.65 3.800  0.00 3.761 1.793 297.4     0 77.10 13.97  1.03 0.351  0.31  0.26  0.23  0.22  0.19  0.17  0.10  0.08  0.02
 2019 261    92    92  27.1 0.658  0.66 3.832  0.00 3.795 1.810 297.4     0 79.27 14.03  1.04 0.353  0.31  0.26  0.24  0.22  0.19  0.17  0.11  0.08  0.02
 2019 262    93    93  25.5 0.665  0.66 3.862  0.01 3.826 1.826 297.4 1.186 81.41 14.07  1.05 0.354  0.31  0.26  0.24  0.22  0.19  0.17  0.11  0.08  0.02
 2019 263    94    94  26.8 0.673  0.67 3.896  0.01 3.848 1.846 297.4 2.903 83.59 14.11  1.06 0.355  0.31  0.26  0.24  0.22  0.19  0.17  0.11  0.08  0.02
 2019 264    95    95  26.6 0.681  0.68 3.928  0.03 3.864 1.866 297.4 6.515 85.84 14.12  1.07 0.357  0.31  0.26  0.24  0.22  0.19  0.17  0.11  0.09  0.02
 2019 265    96    96  27.0 0.688  0.69 3.964  0.06 3.871 1.887 297.4 11.51 88.13 14.12  1.08 0.358  0.31  0.27  0.24  0.22  0.19  0.17  0.11  0.09  0.02
 2019 266    97    97  27.8 0.696  0.70 3.993  0.09 3.873 1.905 297.4 17.19 90.46 14.12  1.09 0.359  0.31  0.27  0.24  0.22  0.19  0.17  0.11  0.09  0.02
 2019 267    98    98  27.5 0.703  0.70 4.020  0.12 3.875 1.923 297.4 23.70 92.82 14.11  1.10 0.360  0.31  0.27  0.24  0.22  0.19  0.17  0.11  0.09  0.02
 2019 268    99    99  27.7 0.710  0.71 4.046  0.15 3.866 1.941 297.4 30.94 95.19 14.09  1.11 0.360  0.31  0.27  0.24  0.22  0.19  0.17  0.11  0.09  0.02
 2019 269   100   100  26.5 0.717  0.72 4.075  0.19 3.861 1.961 297.4 37.22 97.58 14.08  1.12 0.361  0.31  0.27  0.24  0.22  0.19  0.17  0.11  0.09  0.02
 2019 270   101   101  25.9 0.725  0.72 4.103  0.21 3.861 1.980 297.4 43.01 99.96 14.08  1.13 0.362  0.31  0.27  0.24  0.22  0.20  0.17  0.11  0.09  0.02
 2019 271   102   102  26.9 0.733  0.73 4.134  0.25 3.850 2.000 297.4 50.90 102.3 14.06  1.14 0.363  0.32  0.27  0.24  0.22  0.20  0.17  0.11  0.09  0.02
 2019 272   103   103  27.1 0.740  0.74 4.154  0.29 3.840 2.014 297.4 58.33 104.7 14.05  1.15 0.363  0.32  0.27  0.24  0.22  0.20  0.17  0.11  0.09  0.02
 2019 273   104   104  27.4 0.748  0.75 4.177  0.33 3.824 2.032 297.4 66.14 107.1 14.03  1.16 0.363  0.32  0.27  0.24  0.22  0.20  0.17  0.11  0.09  0.02
 2019 274   105   105  27.3 0.755  0.76 4.203  0.37 3.804 2.053 297.4 74.74 109.5 14.00  1.17 0.364  0.32  0.27  0.24  0.22  0.20  0.17  0.11  0.09  0.03
 2019 275   106   106  26.1 0.762  0.76 4.228  0.41 3.791 2.073 297.4 82.76 111.9 13.97  1.18 0.364  0.32  0.27  0.24  0.22  0.20  0.17  0.11  0.09  0.03
[...]
 2020  81   277   277  31.5 1.380  1.38 6.224  5.85 0.370 3.156 192.7  1163 512.5 16.39  1.20 0.225  0.22  0.19  0.17  0.16  0.14  0.11  0.08  0.08  0.03
 2020  82   278   278  30.5 1.382  1.38 6.227  5.86 0.362 3.157 192.7  1166 514.3 16.46  1.20 0.224  0.22  0.19  0.17  0.16  0.14  0.11  0.08  0.08  0.03
 2020  83   279   279  30.7 1.384  1.38 6.231  5.87 0.350 3.161 192.7  1168 516.3 16.53  1.20 0.224  0.22  0.19  0.17  0.16  0.14  0.11  0.08  0.08  0.03
 2020  84   280   280  28.7 1.386  1.39 6.237  5.88 0.345 3.164 192.7  1170 518.2 16.61  1.20 0.223  0.22  0.19  0.17  0.16  0.14  0.11  0.08  0.08  0.03
 2020  85   281   281  29.9 1.389  1.39 6.239  5.89 0.340 3.166 192.7  1172 520.0 16.69  1.20 0.222  0.22  0.19  0.17  0.16  0.14  0.11  0.08  0.08  0.03
 2020  86   282   282  30.1 1.391  1.39 6.244  5.91 0.331 3.169 192.7  1174 521.9 16.77  1.20 0.222  0.22  0.19  0.17  0.16  0.14  0.11  0.08  0.08  0.03
 2020  87   283   283  31.5 1.393  1.39 6.250  5.91 0.330 3.172 192.7  1175 523.8 16.86  1.20 0.221  0.22  0.19  0.17  0.15  0.14  0.11  0.08  0.08  0.03
 2020  88   284   284  31.3 1.395  1.39 6.257  5.92 0.330 3.177 192.7  1177 525.7 16.95  1.20 0.221  0.22  0.19  0.17  0.15  0.14  0.11  0.08  0.08  0.03
 2020  89   285   285  31.7 1.396  1.40 6.262  5.92 0.332 3.180 189.6  1178 527.6 17.03  1.20 0.220  0.22  0.19  0.17  0.15  0.14  0.11  0.08  0.08  0.03
 2020  90   286   286  31.8 1.398  1.40 6.267  5.93 0.330 3.183 189.6  1179 529.4 17.12  1.20 0.219  0.22  0.19  0.17  0.15  0.14  0.11  0.08  0.08  0.03
 2020  91   287   287  30.8 1.399  1.40 6.269  5.94 0.323 3.184 189.6  1181 531.3 17.20  1.20 0.218  0.22  0.18  0.17  0.15  0.14  0.11  0.08  0.08  0.03
 2020  92   288   288  30.0 1.402  1.40 6.274  5.95 0.315 3.188 189.6  1183 533.1 17.28  1.20 0.217  0.22  0.18  0.17  0.15  0.14  0.10  0.08  0.08  0.03
 2020  93   289   289  30.6 1.404  1.40 6.276  5.96 0.310 3.190 189.6  1185 535.0 17.37  1.20 0.216  0.21  0.18  0.16  0.15  0.14  0.10  0.08  0.08  0.03
 2020  94   290   290  31.2 1.406  1.41 6.279  5.97 0.305 3.191 189.6  1186 536.8 17.46  1.20 0.216  0.21  0.18  0.16  0.15  0.13  0.10  0.08  0.08  0.03
 2020  95   291   291  28.9 1.408  1.41 6.283  5.97 0.302 3.194 189.6  1187 538.6 17.55  1.20 0.215  0.21  0.18  0.16  0.15  0.13  0.10  0.08  0.08  0.03
 2020  96   292   292  30.6 1.410  1.41 6.288  5.98 0.299 3.197 189.6  1189 540.4 17.64  1.20 0.215  0.21  0.18  0.16  0.15  0.13  0.10  0.08  0.08  0.03
 2020  97   293   293  30.7 1.412  1.41 6.295  5.99 0.297 3.200 189.6  1190 542.3 17.73  1.20 0.214  0.21  0.18  0.16  0.15  0.13  0.10  0.08  0.08  0.03
 2020  98   294   294  30.8 1.414  1.41 6.299  6.00 0.295 3.203 189.6  1192 544.1 17.82  1.20 0.214  0.21  0.18  0.16  0.15  0.13  0.10  0.08  0.08  0.03
 2020  99   295   295  29.6 1.416  1.42 6.304  6.01 0.289 3.206 189.6  1194 545.9 17.90  1.20 0.213  0.21  0.18  0.16  0.15  0.13  0.10  0.08  0.08  0.03
 2020 100   296   296  29.5 1.417  1.42 6.309  6.02 0.287 3.209 189.6  1195 547.7 17.99  1.20 0.212  0.21  0.18  0.16  0.15  0.13  0.10  0.08  0.07  0.03
 2020 101   297   297  30.4 1.419  1.42 6.311  6.03 0.281 3.210 189.6  1197 549.5 18.08  1.20 0.211  0.21  0.18  0.16  0.15  0.13  0.10  0.08  0.07  0.03
 2020 102   298   298  28.5 1.421  1.42 6.316  6.03 0.279 3.213 189.6  1198 551.2 18.18  1.20 0.210  0.21  0.18  0.16  0.15  0.13  0.10  0.08  0.07  0.03
 2020 103   299   299  30.7 1.424  1.42 6.318  6.04 0.277 3.215 189.6  1199 553.0 18.28  1.20 0.210  0.21  0.18  0.16  0.15  0.13  0.10  0.07  0.07  0.03
 2020 104   300   300  31.5 1.426  1.43 6.322  6.04 0.273 3.217 189.6  1201 554.8 18.37  1.20 0.209  0.21  0.18  0.16  0.15  0.13  0.10  0.07  0.07  0.03
 2020 105   301   301  31.9 1.428  1.43 6.327  6.05 0.272 3.220 185.9  1201 556.5 18.46  1.20 0.209  0.21  0.18  0.16  0.15  0.13  0.09  0.07  0.07  0.03
 2020 106   302   302  31.9 1.430  1.43 6.331  6.05 0.271 3.223 185.9  1203 558.3 18.55  1.20 0.209  0.21  0.18  0.16  0.15  0.13  0.09  0.07  0.07  0.03
 2020 107   303   303  31.5 1.432  1.43 6.338  6.06 0.270 3.227 181.1  1204 560.1 18.62  1.20 0.208  0.21  0.18  0.16  0.15  0.13  0.09  0.07  0.07  0.03
 2020 108   304   304  30.9 1.433  1.43 6.342  6.06 0.272 3.229 181.1  1204 561.8 18.73  1.20 0.208  0.20  0.17  0.16  0.14  0.13  0.09  0.07  0.07  0.03
 2020 109   305   305  31.0 1.435  1.43 6.346  6.07 0.271 3.232 181.1  1206 563.5 18.82  1.20 0.206  0.20  0.17  0.16  0.14  0.13  0.09  0.07  0.07  0.03
 2020 110   306   306  30.0 1.437  1.44 6.349  6.07 0.270 3.234 181.1  1206 565.3 18.93  1.20 0.205  0.20  0.17  0.16  0.14  0.13  0.09  0.07  0.07  0.03
 2020 111   307   307  30.0 1.438  1.44 6.351  6.08 0.265 3.235 181.1  1208 567.0 19.03  1.20 0.203  0.20  0.17  0.16  0.14  0.13  0.09  0.07  0.07  0.03
 2020 112   308   308  31.3 1.440  1.44 6.355  6.09 0.258 3.238 181.1  1210 568.7 19.12  1.20 0.201  0.20  0.17  0.16  0.14  0.13  0.09  0.07  0.07  0.03
 2020 113   309   309  30.7 1.441  1.44 6.358  6.10 0.258 3.239 181.1  1211 570.4 19.23  1.20 0.200  0.20  0.17  0.16  0.14  0.13  0.09  0.07  0.07  0.03
 2020 114   310   310  30.1 1.443  1.44 6.360  6.10 0.254 3.240 181.1  1212 572.1 19.33  1.20 0.198  0.20  0.17  0.15  0.14  0.13  0.09  0.07  0.07  0.03
 2020 115   311   311  30.4 1.444  1.44 6.363  6.11 0.251 3.241 181.1  1213 573.8 19.44  1.20 0.197  0.20  0.17  0.15  0.14  0.13  0.09  0.07  0.07  0.03
 2020 116   312   312  30.5 1.446  1.45 6.368  6.11 0.251 3.245 181.1  1213 575.5 19.54  1.20 0.196  0.20  0.17  0.15  0.14  0.13  0.09  0.07  0.07  0.03
 2020 117   313   313  29.8 1.449  1.45 6.370  6.11 0.252 3.247 181.1  1214 577.2 19.66  1.20 0.196  0.20  0.17  0.15  0.14  0.13  0.09  0.07  0.07  0.03
 2020 118   314   314  29.5 1.451  1.45 6.373  6.12 0.252 3.248 181.1  1214 578.9 19.78  1.20 0.195  0.20  0.17  0.15  0.14  0.13  0.09  0.07  0.07  0.03
 2020 119   315   315  30.4 1.454  1.45 6.377  6.12 0.251 3.252 181.1  1215 580.5 19.88  1.20 0.195  0.20  0.17  0.15  0.14  0.13  0.08  0.07  0.07  0.03
 2020 120   316   316  31.6 1.456  1.46 6.382  6.13 0.247 3.256 181.1  1217 582.2 19.98  1.20 0.195  0.20  0.17  0.15  0.14  0.12  0.08  0.07  0.07  0.03
 2020 121   317   317  29.9 1.458  1.46 6.385  6.14 0.244 3.258 181.1  1218 583.9 20.07  1.20 0.194  0.20  0.17  0.15  0.14  0.12  0.08  0.07  0.07  0.03
 2020 122   318   318  29.9 1.461  1.46 6.389  6.14 0.242 3.261 181.1  1219 585.5 20.18  1.20 0.194  0.20  0.17  0.15  0.14  0.12  0.08  0.07  0.07  0.03
 2020 123   319   319  29.8 1.464  1.46 6.394  6.14 0.243 3.265 181.1  1220 587.2 20.29  1.20 0.194  0.20  0.17  0.15  0.14  0.12  0.08  0.06  0.07  0.03
 2020 124   320   320  28.6 1.466  1.47 6.397  6.15 0.244 3.267 181.1  1220 588.8 20.40  1.20 0.193  0.20  0.17  0.15  0.14  0.12  0.08  0.06  0.07  0.03
 2020 125   321   321  29.0 1.469  1.47 6.402  6.15 0.244 3.271 181.1  1221 590.4 20.51  1.20 0.193  0.19  0.17  0.15  0.14  0.12  0.08  0.06  0.06  0.03
 2020 126   322   322  30.1 1.472  1.47 6.406  6.15 0.245 3.275 181.1  1222 592.1 20.62  1.20 0.192  0.19  0.17  0.15  0.14  0.12  0.08  0.06  0.06  0.03
 2020 127   323   323  30.6 1.475  1.48 6.410  6.16 0.244 3.276 181.1  1223 593.7 20.73  1.20 0.192  0.19  0.17  0.15  0.14  0.12  0.08  0.06  0.06  0.03
 2020 128   324   324  29.9 1.477  1.48 6.414  6.16 0.244 3.280 181.1  1224 595.3 20.84  1.20 0.191  0.19  0.16  0.15  0.14  0.12  0.08  0.06  0.06  0.03
 2020 129   325   325  29.3 1.480  1.48 6.418  6.17 0.242 3.284 181.1  1225 596.9 20.94  1.20 0.191  0.19  0.16  0.15  0.14  0.12  0.08  0.06  0.06  0.03
 2020 130   326   326  28.5 1.482  1.48 6.423  6.18 0.238 3.285 181.1  1226 598.5 21.04  1.20 0.190  0.19  0.16  0.15  0.14  0.12  0.08  0.06  0.06  0.03
 2020 131   327   327  29.5 1.485  1.49 6.427  6.18 0.238 3.289 181.1  1227 600.1 21.15  1.20 0.190  0.19  0.16  0.15  0.14  0.12  0.08  0.06  0.06  0.03
 2020 132   328   328  29.1 1.488  1.49 6.431  6.19 0.238 3.293 181.1  1228 601.7 21.26  1.20 0.189  0.19  0.16  0.15  0.13  0.12  0.08  0.06  0.06  0.03
 2020 133   329   329  29.4 1.491  1.49 6.435  6.19 0.238 3.294 181.1  1228 603.3 21.37  1.20 0.189  0.19  0.16  0.15  0.13  0.12  0.08  0.06  0.06  0.03
 2020 134   330   330  28.5 1.493  1.49 6.439  6.19 0.239 3.298 181.1  1229 604.9 21.49  1.20 0.189  0.19  0.16  0.15  0.13  0.12  0.08  0.06  0.06  0.03
 2020 135   331   331  29.8 1.496  1.50 6.443  6.20 0.238 3.301 181.1  1230 606.5 21.59  1.20 0.188  0.19  0.16  0.14  0.13  0.12  0.08  0.06  0.06  0.03
 2020 136   332   332  29.6 1.498  1.50 6.446  6.21 0.234 3.303 181.1  1231 608.1 21.70  1.20 0.188  0.19  0.16  0.14  0.13  0.12  0.08  0.06  0.06  0.03
 2020 137   333   333  30.0 1.501  1.50 6.450  6.21 0.234 3.307 181.1  1232 609.6 21.81  1.20 0.187  0.19  0.16  0.14  0.13  0.12  0.08  0.06  0.06  0.03
 2020 138   334   334  30.9 1.504  1.50 6.454  6.21 0.234 3.311 181.1  1233 611.2 21.93  1.20 0.187  0.19  0.16  0.14  0.13  0.12  0.08  0.06  0.06  0.03
 2020 139   335   335  30.4 1.506  1.51 6.458  6.22 0.235 3.313 181.1  1234 612.7 22.04  1.20 0.186  0.19  0.16  0.14  0.13  0.12  0.08  0.06  0.06  0.03
 2020 140   336   336  29.4 1.508  1.51 6.462  6.22 0.235 3.316 181.1  1234 614.3 22.16  1.20 0.186  0.19  0.16  0.14  0.13  0.12  0.08  0.06  0.06  0.03
 2020 141   337   337  29.4 1.511  1.51 6.466  6.22 0.235 3.320 181.1  1235 615.8 22.28  1.20 0.185  0.19  0.16  0.14  0.13  0.12  0.08  0.06  0.06  0.03
 2020 142   338   338  29.4 1.514  1.51 6.469  6.23 0.235 3.321 181.1  1236 617.4 22.40  1.20 0.185  0.18  0.16  0.14  0.13  0.12  0.08  0.06  0.06  0.03
 2020 143   339   339  29.8 1.517  1.52 6.473  6.23 0.235 3.326 181.1  1236 618.9 22.51  1.20 0.184  0.18  0.16  0.14  0.13  0.12  0.08  0.06  0.06  0.03
 2020 144   340   340  30.4 1.520  1.52 6.477  6.24 0.235 3.330 181.1  1237 620.4 22.63  1.20 0.184  0.18  0.16  0.14  0.13  0.12  0.08  0.06  0.06  0.03
 2020 145   341   341  28.2 1.523  1.52 6.480  6.24 0.236 3.332 181.1  1238 622.0 22.75  1.20 0.183  0.18  0.16  0.14  0.13  0.12  0.08  0.06  0.06  0.03
 2020 146   342   342  28.1 1.526  1.53 6.484  6.24 0.234 3.335 181.1  1239 623.5 22.86  1.20 0.183  0.18  0.16  0.14  0.13  0.11  0.08  0.06  0.06  0.03
 2020 147   343   343  30.4 1.529  1.53 6.488  6.25 0.233 3.339 181.1  1239 625.0 22.98  1.20 0.182  0.18  0.15  0.14  0.13  0.11  0.08  0.06  0.06  0.03
 2020 148   344   344  29.5 1.532  1.53 6.494  6.25 0.232 3.343 181.1  1240 626.5 23.08  1.20 0.182  0.18  0.15  0.14  0.13  0.11  0.08  0.06  0.06  0.03
 2020 149   345   345  28.3 1.535  1.54 6.498  6.26 0.232 3.347 181.1  1242 628.0 23.19  1.20 0.181  0.18  0.15  0.14  0.13  0.11  0.08  0.06  0.06  0.03
 2020 150   346   346  28.6 1.539  1.54 6.502  6.26 0.231 3.351 181.1  1242 629.5 23.31  1.20 0.181  0.18  0.15  0.14  0.13  0.11  0.08  0.06  0.06  0.03
 2020 151   347   347  29.2 1.542  1.54 6.505  6.27 0.232 3.355 181.1  1243 631.0 23.43  1.20 0.180  0.18  0.15  0.14  0.13  0.11  0.08  0.06  0.06  0.03
 2020 152   348   348  30.0 1.545  1.54 6.509  6.27 0.234 3.359 181.1  1243 632.5 23.56  1.20 0.179  0.18  0.15  0.14  0.13  0.11  0.08  0.06  0.06  0.03
 2020 153   349   349  26.3 1.548  1.55 6.513  6.27 0.237 3.362 181.1  1244 634.0 23.69  1.20 0.179  0.18  0.15  0.14  0.13  0.11  0.08  0.06  0.06  0.03
 2020 154   350   350  28.0 1.552  1.55 6.519  6.27 0.237 3.366 181.1  1244 635.4 23.80  1.20 0.178  0.18  0.15  0.14  0.12  0.11  0.08  0.06  0.05  0.03
 2020 155   351   351  29.0 1.555  1.55 6.522  6.28 0.239 3.370 181.1  1245 636.9 23.92  1.20 0.178  0.18  0.15  0.13  0.12  0.11  0.08  0.06  0.05  0.03
 2020 156   352   352  28.2 1.558  1.56 6.526  6.28 0.240 3.374 181.1  1245 638.4 24.04  1.20 0.177  0.17  0.15  0.13  0.12  0.11  0.08  0.06  0.05  0.03
 2020 157   353   353  29.1 1.561  1.56 6.532  6.29 0.238 3.378 181.1  1247 639.8 24.15  1.20 0.177  0.17  0.15  0.13  0.12  0.11  0.08  0.06  0.05  0.03
 2020 158   354   354  27.6 1.565  1.56 6.537  6.29 0.240 3.383 181.1  1247 641.3 24.26  1.20 0.176  0.17  0.15  0.13  0.12  0.11  0.08  0.06  0.05  0.03
 2020 159   355   355  28.0 1.568  1.57 6.541  6.29 0.242 3.387 181.1  1248 642.7 24.38  1.20 0.176  0.17  0.15  0.13  0.12  0.11  0.08  0.06  0.05  0.03
 2020 160   356   356  27.9 1.571  1.57 6.546  6.30 0.239 3.390 181.1  1249 644.2 24.49  1.20 0.175  0.17  0.15  0.13  0.12  0.11  0.08  0.06  0.05  0.03
 2020 161   357   357  28.0 1.575  1.57 6.550  6.30 0.240 3.394 181.1  1250 645.6 24.61  1.20 0.175  0.17  0.15  0.13  0.12  0.11  0.08  0.06  0.05  0.03
 2020 162   358   358  28.2 1.578  1.58 6.553  6.31 0.240 3.398 181.1  1251 647.1 24.73  1.20 0.174  0.17  0.15  0.13  0.12  0.11  0.08  0.06  0.05  0.03
 2020 163   359   359  26.5 1.582  1.58 6.558  6.31 0.241 3.401 181.1  1251 648.5 24.85  1.20 0.173  0.17  0.15  0.13  0.12  0.11  0.08  0.06  0.05  0.03
 2020 164   360   360  27.2 1.585  1.59 6.562  6.31 0.245 3.405 181.1  1251 649.9 24.99  1.20 0.173  0.17  0.14  0.13  0.12  0.11  0.08  0.06  0.05  0.03
 2020 165   361   361  27.3 1.589  1.59 6.565  6.31 0.248 3.408 181.1  1251 651.3 25.13  1.20 0.172  0.17  0.14  0.13  0.12  0.11  0.08  0.06  0.05  0.03
 2020 166   362   362  27.9 1.592  1.59 6.569  6.31 0.248 3.412 181.1  1252 652.8 25.25  1.20 0.172  0.17  0.14  0.13  0.12  0.11  0.08  0.06  0.05  0.03
 2020 167   363   363  29.2 1.596  1.60 6.571  6.32 0.249 3.414 181.1  1253 654.2 25.39  1.20 0.171  0.17  0.14  0.13  0.12  0.11  0.08  0.06  0.05  0.03
 2020 168   364   364  28.6 1.599  1.60 6.575  6.32 0.245 3.418 181.1  1254 655.6 25.51  1.20 0.170  0.17  0.14  0.13  0.12  0.11  0.08  0.06  0.05  0.03
 2020 169   365   365  28.5 1.602  1.60 6.578  6.33 0.242 3.421 181.1  1255 657.0 25.62  1.20 0.170  0.17  0.14  0.13  0.12  0.10  0.08  0.06  0.05  0.03
 2020 170   366   366  27.0 1.606  1.61 6.582  6.33 0.243 3.423 181.1  1255 658.4 25.75  1.20 0.169  0.17  0.14  0.13  0.12  0.10  0.08  0.06  0.05  0.03
 2020 171   367   367  28.0 1.609  1.61 6.585  6.34 0.243 3.427 181.1  1256 659.8 25.88  1.20 0.169  0.16  0.14  0.13  0.12  0.10  0.07  0.06  0.05  0.03
 2020 172   368   368  28.2 1.613  1.61 6.589  6.34 0.242 3.431 181.1  1257 661.2 26.01  1.20 0.168  0.16  0.14  0.13  0.12  0.10  0.07  0.05  0.05  0.03
 2020 173   369   369  27.6 1.616  1.62 6.593  6.34 0.242 3.434 181.1  1257 662.5 26.13  1.20 0.168  0.16  0.14  0.13  0.12  0.10  0.07  0.05  0.05  0.03
 2020 174   370   370  26.6 1.619  1.62 6.598  6.35 0.244 3.439 181.1  1258 663.9 26.25  1.20 0.167  0.16  0.14  0.13  0.12  0.10  0.07  0.05  0.05  0.03
 2020 175   371   371  27.5 1.623  1.62 6.602  6.35 0.247 3.443 181.1  1258 665.3 26.38  1.20 0.166  0.16  0.14  0.12  0.11  0.10  0.07  0.05  0.05  0.03
 2020 176   372   372  26.8 1.627  1.63 6.605  6.35 0.249 3.446 181.1  1259 666.7 26.52  1.20 0.166  0.16  0.14  0.12  0.11  0.10  0.07  0.05  0.05  0.02
 2020 177   373   373  27.2 1.630  1.63 6.609  6.35 0.252 3.448 181.1  1259 668.0 26.67  1.20 0.165  0.16  0.14  0.12  0.11  0.10  0.07  0.05  0.05  0.02
 2020 178   374   374  26.5 1.634  1.63 6.612  6.35 0.254 3.451 181.1  1259 669.4 26.80  1.20 0.165  0.16  0.14  0.12  0.11  0.10  0.07  0.05  0.05  0.02
 2020 179   375   375  27.4 1.638  1.64 6.615  6.36 0.255 3.455 181.1  1260 670.7 26.93  1.20 0.164  0.16  0.14  0.12  0.11  0.10  0.07  0.05  0.05  0.02
 2020 180   376   376  26.6 1.641  1.64 6.619  6.36 0.256 3.458 181.1  1260 672.0 27.05  1.20 0.164  0.16  0.14  0.12  0.11  0.10  0.07  0.05  0.05  0.02
 2020 181   377   377  26.0 1.645  1.64 6.623  6.36 0.258 3.461 181.1  1260 673.3 27.18  1.20 0.163  0.16  0.14  0.12  0.11  0.10  0.07  0.05  0.05  0.02
 2020 182   378   378  27.2 1.649  1.65 6.626  6.36 0.258 3.465 181.1  1261 674.5 27.30  1.20 0.163  0.16  0.14  0.12  0.11  0.10  0.07  0.05  0.05  0.02
 2020 183   379   379  28.1 1.652  1.65 6.629  6.36 0.259 3.469 181.1  1261 675.8 27.43  1.20 0.162  0.16  0.13  0.12  0.11  0.10  0.07  0.05  0.05  0.02
 2020 184   380   380  28.5 1.656  1.66 6.632  6.37 0.259 3.470 181.1  1262 677.1 27.57  1.20 0.162  0.16  0.13  0.12  0.11  0.10  0.07  0.05  0.05  0.02
 2020 185   381   381  26.7 1.659  1.66 6.635  6.37 0.260 3.474 181.1  1262 678.5 27.70  1.20 0.161  0.16  0.13  0.12  0.11  0.10  0.07  0.05  0.05  0.02
 2020 186   382   382  25.2 1.663  1.66 6.639  6.37 0.260 3.477 181.1  1263 679.8 27.84  1.20 0.161  0.16  0.13  0.12  0.11  0.10  0.07  0.05  0.05  0.02
 2020 187   383   383  26.8 1.667  1.67 6.642  6.38 0.260 3.480 181.1  1264 681.1 27.96  1.20 0.160  0.16  0.13  0.12  0.11  0.10  0.07  0.05  0.05  0.02
 2020 188   384   384  27.3 1.670  1.67 6.645  6.38 0.260 3.482 181.1  1264 682.3 28.10  1.20 0.160  0.15  0.13  0.12  0.11  0.10  0.07  0.05  0.05  0.02
 2020 189   385   385  26.6 1.674  1.67 6.648  6.38 0.261 3.485 181.1  1265 683.6 28.22  1.20 0.159  0.15  0.13  0.12  0.11  0.10  0.07  0.05  0.05  0.02
 2020 190   386   386  27.0 1.677  1.68 6.652  6.39 0.260 3.489 181.1  1265 684.8 28.34  1.20 0.159  0.15  0.13  0.12  0.11  0.10  0.07  0.05  0.05  0.02
 2020 191   387   387  27.0 1.681  1.68 6.655  6.39 0.260 3.492 181.1  1266 686.0 28.47  1.20 0.158  0.15  0.13  0.12  0.11  0.10  0.07  0.05  0.05  0.02
 2020 192   388   388  24.8 1.685  1.68 6.658  6.39 0.261 3.494 181.1  1267 687.3 28.60  1.20 0.158  0.15  0.13  0.12  0.11  0.10  0.07  0.05  0.05  0.02
 2020 193   389   389  25.5 1.689  1.69 6.661  6.39 0.262 3.497 181.1  1267 688.5 28.72  1.20 0.157  0.15  0.13  0.12  0.11  0.10  0.07  0.05  0.05  0.02
 2020 194   390   390  26.5 1.693  1.69 6.664  6.40 0.260 3.500 181.1  1268 689.6 28.83  1.20 0.157  0.15  0.13  0.12  0.11  0.10  0.07  0.05  0.05  0.02
 2020 195   391   391  26.8 1.697  1.70 6.668  6.40 0.260 3.504 181.1  1269 690.8 28.94  1.20 0.156  0.15  0.13  0.12  0.11  0.10  0.07  0.05  0.05  0.02
 2020 196   392   392  25.5 1.700  1.70 6.670  6.40 0.261 3.505 181.1  1269 691.9 29.06  1.20 0.156  0.15  0.13  0.12  0.11  0.10  0.07  0.05  0.05  0.02
 2020 197   393   393  25.8 1.704  1.70 6.674  6.41 0.261 3.508 181.1  1270 693.1 29.17  1.20 0.156  0.15  0.13  0.12  0.11  0.09  0.07  0.05  0.05  0.02
 2020 198   394   394  26.5 1.708  1.71 6.677  6.41 0.259 3.512 181.1  1271 694.2 29.28  1.20 0.155  0.15  0.13  0.11  0.11  0.09  0.07  0.05  0.05  0.02
 2020 199   395   395  26.0 1.712  1.71 6.680  6.42 0.259 3.515 181.1  1271 695.3 29.39  1.20 0.155  0.15  0.13  0.11  0.11  0.09  0.07  0.05  0.05  0.02
 2020 200   396   396  26.5 1.716  1.72 6.682  6.42 0.260 3.517 181.1  1272 696.5 29.51  1.20 0.154  0.15  0.13  0.11  0.11  0.09  0.07  0.05  0.05  0.02
 2020 201   397   397  26.3 1.719  1.72 6.686  6.42 0.258 3.520 181.1  1272 697.6 29.63  1.20 0.154  0.15  0.13  0.11  0.10  0.09  0.07  0.05  0.05  0.02
 2020 202   398   398  25.8 1.723  1.72 6.689  6.43 0.258 3.523 181.1  1273 698.8 29.75  1.20 0.154  0.15  0.13  0.11  0.10  0.09  0.07  0.05  0.05  0.02
 2020 203   399   399  26.5 1.727  1.73 6.692  6.43 0.258 3.526 181.1  1274 699.9 29.87  1.20 0.153  0.15  0.13  0.11  0.10  0.09  0.07  0.05  0.05  0.02
 2020 204   400   400  27.0 1.731  1.73 6.694  6.43 0.259 3.528 181.1  1274 701.1 30.00  1.20 0.153  0.15  0.13  0.11  0.10  0.09  0.07  0.05  0.05  0.02
 2020 205   401   401  25.2 1.735  1.73 6.697  6.43 0.257 3.531 181.1  1275 702.2 30.12  1.20 0.152  0.15  0.12  0.11  0.10  0.09  0.07  0.05  0.05  0.02
 2020 206   402   402  26.2 1.739  1.74 6.700  6.44 0.257 3.534 181.1  1275 703.4 30.24  1.20 0.152  0.15  0.12  0.11  0.10  0.09  0.07  0.05  0.05  0.02
 2020 207   403   403  25.8 1.742  1.74 6.703  6.44 0.257 3.538 181.1  1276 704.5 30.36  1.20 0.151  0.15  0.12  0.11  0.10  0.09  0.07  0.05  0.05  0.02
 2020 208   404   404  26.8 1.746  1.75 6.705  6.44 0.258 3.539 181.1  1276 705.6 30.50  1.20 0.151  0.14  0.12  0.11  0.10  0.09  0.07  0.05  0.05  0.02
 2020 209   405   405  25.0 1.750  1.75 6.707  6.45 0.256 3.541 181.1  1277 706.7 30.63  1.20 0.150  0.14  0.12  0.11  0.10  0.09  0.07  0.05  0.05  0.02
