$GROWTH ASPECTS OUTPUT FILE

*DSSAT Cropping System Model Ver. 4.8.0.019 -develop  APR 08, 2023 12:34:37

*RUN   1        : IITA-TMS-IBA000070        CSYCA048 UYAB1901    1
 MODEL          : CSYCA048 - Cassava
 EXPERIMENT     : UYAB1901 CS UYT_GXE
 DATA PATH      :
 TREATMENT  1   : IITA-TMS-IBA000070        CSYCA048
  
@YEAR DOY   DAS   DAP TMEAN  GSTD  L#SD PARID PARUD  AWAD  LAID  SAID  CAID  TWAD SDWAD  RWAD  CWAD  LWAD  SWAD  HWAD  HIAD RSWAD SNWLD SNWSD  RS%D  S#AD  SLAD  RDPD  SWXD WAVRD WUPRD  WFPD  WFGD  NFPD  NFGD NUPRD  TFPD  TFGD DYLFD            
 2019 169     1     0  28.8     0   0.0 0.000  0.00   0.0     0 0.000     0  -734  -734     0 -2970     0     0     0 0.000     0     0     0  0.00  0.00 -99.0  0.20  17.3  99.9  1.00  0.00  0.00  0.00  0.00   0.0  0.00  0.00  0.00
 2019 170     2     1  29.1     0   0.0 0.000  0.00   0.0     0 0.000     0  -734  -734     0  -734     0     0     0 0.000     0     0     0  0.00  0.00 -99.0  0.20  18.5  99.9  1.00  0.00  0.00  0.00  0.00   0.0  0.00  0.00  0.00
 2019 171     3     2  26.5     0   0.0 0.000  0.00   0.0     0 0.000     0  -734  -734     0  -734     0     0     0 0.000     0     0     0  0.00  0.00 -99.0  0.20  19.0  99.9  1.00  0.00  0.00  0.00  0.00   0.0  0.00  0.00  0.00
 2019 172     4     3  26.1     0   0.0 0.000  0.00   0.0     0 0.000     0  -734  -734     0  -734     0     0     0 0.000     0     0     0  0.00  0.00 -99.0  0.20  24.5  99.9  1.00  0.00  0.00  0.00  0.00   0.0  0.00  0.00  0.00
 2019 173     5     4  26.0     0   0.0 0.000  0.00   0.0     0 0.000     0  -734  -734     0  -734     0     0     0 0.000     0     0     0  0.00  0.00 -99.0  0.20  27.0  99.9  1.00  0.00  0.00  0.00  0.00   0.0  0.00  0.00  0.00
 2019 174     6     5  25.8     0   0.0 0.000  0.00   0.0     0 0.000     0  -734  -734     0  -734     0     0     0 0.000     0     0     0  0.00  0.00 -99.0  0.20  24.2  99.9  1.00  0.00  0.00  0.00  0.00   0.0  0.00  0.00  0.00
 2019 175     7     6  24.8     0   0.0 0.000  0.00   0.0     0 0.000     0  -734  -734     0  -734     0     0     0 0.000     0     0     0  0.00  0.00 -99.0  0.20  28.5  99.9  1.00  0.00  0.00  0.00  0.00   0.0  0.00  0.00  0.00
 2019 176     8     7  25.9     0   0.0 0.000  0.00   0.0     0 0.000     0  -734  -734     0  -734     0     0     0 0.000     0     0     0  0.00  0.00 -99.0  0.20  27.1  99.9  1.00  0.00  0.00  0.00  0.00   0.0  0.00  0.00  0.00
 2019 177     9     8  25.2     0   0.0 0.000  0.00   0.0     0 0.000     0  -742  -742     0  -742     0     0     0 0.000     0     0     0  0.00  1.00 -99.0  0.21  31.7  99.9  1.00  0.00  0.00  0.00  0.00   0.0  0.00  0.00  0.00
 2019 178    10     9  24.6 .0045   0.0 0.000  0.00   0.0     0 0.000     0  -742  -742     0  -742     0     0     0 0.000     0     0     0  0.00  1.00 -99.0  0.22  32.0  99.9  1.00  0.00  0.00  0.00  0.00   0.0  0.02  0.00  0.00
 2019 179    11    10  24.8 .0090   1.2 0.000  0.00   0.0     0 0.000     0  -742  -742     0  -742     0     0     0 0.000     0     0     0  0.00  1.00 -99.0  0.23  32.4  99.9  1.00  0.00  0.00  0.00  0.00   0.0  0.01  0.00  0.00
 2019 180    12    11  26.1 .0136   2.6 0.000  0.00   0.0     0 0.000     0  -742  -742     0  -742     0     0     0 0.000     0     0     0  0.00  1.00 -99.0  0.25  29.6  99.9  1.00  0.00  0.00  0.00  0.00   0.0  0.00  0.00  0.00
 2019 181    13    12  26.2 .0179   4.0 0.000  0.00   0.0     0 0.000 .0005  -741  -746     1  -742     3     1     1 0.000     0     0     0  0.00  1.00 207.1  0.26  28.3  99.9  1.00  0.00  0.00  0.00  0.00   0.0  0.00  0.00  0.00
 2019 182    14    13  25.8 .0221   5.3 0.003  0.00   0.0 .0044 0.001 .0058  -740  -755     2  -744     9     2     2 0.000     0     0 .0062  0.00  1.00 205.7  0.27  30.8  99.9  1.00  0.00  0.00  0.00  0.00   0.0  0.00  0.00  0.00
 2019 183    15    14  26.0 .0265   6.6 0.007  1.22   0.2 .0124 0.002 .0148  -738  -764     3  -745    16     4     3 0.000     0     0 .0213  0.00  1.00 205.7  0.29  30.8  99.9  1.00  0.00  0.00  0.00  0.00   0.0  0.00  0.00  0.00
 2019 184    16    15  26.5 .0308   8.0 0.013  1.02   0.7 .0217 0.004 .0260  -735  -780     5  -745    28     7     5 0.000     0     0 .0472  0.00  1.00 207.0  0.30  31.9  99.9  1.00  0.00  0.00  0.00  0.00   0.0  0.00  0.00  0.00
 2019 185    17    16  25.5 .0349   9.2 0.023  1.34   1.4 .0380 0.007 .0445  -731  -800     8  -746    43    11     8 0.000     0     0 .0874  0.00  1.00 205.9  0.31  38.2  99.9  1.00  0.00  0.00  0.00  0.00   0.0  0.00  0.00  0.00
 2019 186    18    17  25.8 .0393  10.5 0.034  1.23   2.1 .0583 0.009 .0673  -726  -820    10  -746    59    15    10 0.000     0     0 0.144  0.00  1.00 205.7  0.33  37.7  99.9  1.00  0.00  0.00  0.00  0.00   0.0  0.00  0.00  0.00
 2019 187    19    18  26.0 .0437  11.8 0.047  1.15   4.0 .0801 0.012 .0924  -718  -846    13  -744    81    21    13 0.000     1     0 0.221  0.00  1.00 205.7  0.34  34.5  99.9  1.00  0.00  0.00  0.00  0.00   0.0  0.00  0.00  0.00
 2019 188    20    19  26.2 .0480  13.1 0.064  1.15   4.9 0.110 0.016 0.126  -709  -876    17  -743   106    28    17 0.000     1     0 0.322  0.00  1.00 206.1  0.35  33.1  99.9  1.00  0.00  0.00  0.00  0.00   0.0  0.00  0.00  0.00
 2019 189    21    20  25.0 .0522  14.3 0.083  1.37   3.0 0.144 0.020 0.163  -704  -907    20  -744   128    35    20 0.000     1     0 0.445  0.00  1.00 205.2  0.36  36.9  99.9  1.00  0.00  0.00  0.00  0.00   0.0  0.00  0.00  0.00
 2019 190    22    21  24.0 .0568  15.3 0.099  1.27   8.2 0.174 0.024 0.198  -689  -936    24  -737   156    43    24 0.000     1     0 0.590  0.00  1.00 203.7  0.37  38.8  99.9  1.00  0.00  0.00  0.00  0.00   0.0  0.06  0.00  0.00
 2019 191    23    22  26.2 .0613  16.6 0.118  0.86   7.7 0.209 0.028 0.237  -676  -967    28  -732   183    52    29 0.000     1     0 0.767  0.00  1.00 204.2  0.38  37.8  91.2  1.00  0.00  0.00  0.00  0.00   0.0  0.00  0.00  0.00
 2019 192    24    23  24.1 .0656  17.7 0.138  1.40   9.5 0.247 0.032 0.279  -663 -1000    32  -728   211    62    33 0.000     1     0 0.965  0.00  1.00 203.3  0.39  51.4  99.9  1.00  0.00  0.00  0.00  0.00   0.0  0.06  0.00  0.00
 2019 193    25    24  24.3 .0701  18.8 0.156  1.23  12.8 0.283 0.037 0.319  -644 -1028    36  -717   239    72    37 0.000     2     0 1.185  0.00  1.00 202.6  0.41  50.6  99.9  1.00  0.00  0.00  0.00  0.00   0.0  0.05  0.00  0.00
 2019 194    26    25  24.2 .0747  19.8 0.175  1.09  18.0 0.320 0.042 0.361  -617 -1054    40  -700   271    83    42 0.000     2     0 1.437  0.00  1.00 201.9  0.42  48.2  66.2  1.00  0.00  0.00  0.00  0.00   0.0  0.05  0.00  0.00
 2019 195    27    26  25.7 .0792  21.0 0.195  1.04  16.7 0.362 0.046 0.408  -597 -1083    45  -688   300    95    46 0.000     2     0 1.731  0.00  1.00 202.2  0.43  60.2  83.2  1.00  0.00  0.00  0.00  0.00   0.0  0.00  0.00  0.00
 2019 196    28    27  26.0 .0836  22.3 0.214  1.12  21.2 0.401 0.050 0.451  -570 -1102    49  -669   326   107    51 0.000     2     0 2.053  0.00  1.00 202.5  0.44  56.2  65.5  1.00  0.00  0.00  0.00  0.00   0.0  0.00  0.00  0.00
 2019 197    29    28  25.2 .0879  23.4 0.230  1.32  22.7 0.435 0.053 0.488  -546 -1109    51  -648   346   115    51 0.000     3     0 2.411  0.00  1.00 202.5  0.45  54.0  70.9  1.00  0.00  0.00  0.00  0.00   0.0  0.00  0.00  0.00
 2019 198    30    29  26.0 .0924  24.6 0.242  1.04  24.2 0.462 0.056 0.517  -515 -1106    54  -620   363   123    52 0.000     3     0 2.803  0.00  1.00 202.7  0.46  50.0  47.6  1.00  0.00  0.00  0.00  0.00   0.0  0.00  0.00  0.00
 2019 199    31    30  25.8 .0967  25.8 0.253  1.34  19.5 0.486 0.057 0.543  -499 -1105    55  -604   373   127    51 0.000     3     0 3.213  0.00  1.00 202.8  0.47  53.2  82.7  1.00  0.00  0.00  0.00  0.00   0.0  0.00  0.00  0.00
 2019 200    32    31  23.2 0.101  26.7 0.259  1.36  11.0 0.499 0.058 0.557  -492 -1104    55  -596   378   130    49 0.000     3     0 3.608  0.00  1.00 202.6  0.49  60.9  99.9  1.00  0.00  0.00  0.00  0.00   0.0  0.12  0.07  0.00
 2019 201    33    32  24.6 0.106  27.8 0.262  1.19  28.3 0.506 0.061 0.567  -449 -1101    59  -558   402   141    50 0.000     2     0 3.996  0.00  1.00 202.4  0.50  59.4  56.8  1.00  0.00  0.00  0.00  0.00   0.0  0.03  0.00  0.00
 2019 202    34    33  25.4 0.110  28.9 0.275  1.05  20.5 0.536 0.063 0.600  -430 -1100    60  -540   413   147    50 0.000     3     0 4.414  0.00  1.00 202.4  0.51  56.9  65.5  1.00  0.00  0.00  0.00  0.00   0.0  0.00  0.00  0.00
 2019 203    35    34  24.2 0.115  29.9 0.282  1.35  25.7 0.552 0.066 0.617  -402 -1098    62  -514   429   155    50 0.000     2     0 4.823  0.00  1.00 202.2  0.52  60.8  74.4  1.00  0.00  0.00  0.00  0.00   0.0  0.05  0.00  0.00
 2019 204    36    35  25.5 0.119  31.0 0.291  1.16  27.8 0.572 0.069 0.641  -369 -1095    65  -484   448   164    50 0.000     2     0 5.251  0.00  1.00 202.3  0.53  60.4  56.6  1.00  0.00  0.00  0.00  0.00   0.0  0.00  0.00  0.00
 2019 205    37    36  25.6 0.124  32.1 0.302  1.17  29.7 0.598 0.071 0.669  -336 -1093    67  -454   466   174    51 0.000     3     0 5.722  0.00  1.00 202.4  0.54  59.7  52.8  1.00  0.00  0.00  0.00  0.00   0.0  0.00  0.00  0.00
 2019 206    38    37  26.0 0.128  33.3 0.311  1.21   7.7 0.622 0.071 0.693  -336 -1093    67  -451   467   174    48 0.000     3     0 6.211  0.00  1.00 202.4  0.55  67.7  99.9  1.00  0.00  0.00  0.00  0.00   0.0  0.00  0.00  0.00
 2019 207    39    38  25.0 0.132  34.3 0.312  1.38  34.8 0.624 0.076 0.700  -286 -1090    71  -407   495   188    50 0.000     2     0 6.690  0.00  1.00 202.3  0.56  70.6  63.7  1.00  0.00  0.00  0.00  0.00   0.0  0.00  0.00  0.00
 2019 208    40    39  25.2 0.137  35.4 0.327  1.23  22.6 0.660 0.077 0.738  -266 -1089    72  -389   506   194    50 0.000     3     0 7.207  0.00  1.00 202.3  0.57  71.4  87.9  1.00  0.00  0.00  0.00  0.00   0.0  0.00  0.00  0.00
 2019 209    41    40  24.5 0.141  36.4 0.333  1.42  33.9 0.675 0.081 0.756  -226 -1086    76  -352   527   207    51 0.000     2     0 7.720  0.00  1.00 202.2  0.58  79.9  77.2  1.00  0.00  0.00  0.00  0.00   0.0  0.03  0.00  0.00
 2019 210    42    41  23.9 0.146  37.3 0.344  1.37  31.4 0.704 0.083 0.787  -193 -1084    78  -322   545   217    51 0.000     3     0 8.235  0.00  1.00 201.9  0.59  78.3  79.8  1.00  0.00  0.00  0.00  0.00   0.0  0.08  0.01  0.00
 2019 211    43    42  24.5 0.150  38.3 0.353  1.12  24.4 0.727 0.086 0.813  -167 -1083    80  -298   560   225    51 0.000     3     0 8.765  0.00  1.00 201.9  0.61  75.4  79.3  1.00  0.00  0.00  0.00  0.00   0.0  0.03  0.00  0.00
 2019 212    44    43  24.8 0.155  39.3 0.361  1.17  34.0 0.746 0.089 0.835  -126 -1081    83  -261   582   238    52 0.000     3     0 9.313  0.00  1.00 201.8  0.61  77.0  60.6  1.00  0.00  0.00  0.00  0.00   0.0  0.02  0.00  0.00
 2019 213    45    44  25.3 0.159  40.4 0.372  1.35  42.0 0.775 0.093 0.867   -79 -1078    87  -220   607   251    54 0.000     3     0 9.883  0.00  1.00 201.8  0.62  78.4  57.2  1.00  0.00  0.00  0.00  0.00   0.0  0.00  0.00  0.00
 2019 214    46    45  24.8 0.164  41.4 0.384  1.37  31.7 0.809 0.095 0.904   -51 -1077    89  -194   623   260    54 0.000     3     0 10.48  0.00  1.00 201.8  0.63  85.0  84.4  1.00  0.00  0.00  0.00  0.00   0.0  0.02  0.00  0.00
 2019 215    47    46  24.4 0.169  42.3 0.392  1.31  38.1 0.830 0.099 0.929    -5 -1074    92  -153   647   274    55 0.000     3     0 11.10  0.00  1.00 201.6  0.64  87.0  69.0  1.00  0.00  0.00  0.00  0.00   0.0  0.04  0.00  0.00
 2019 216    48    47  24.1 0.173  43.2 0.404  1.17  33.5 0.861 0.102 0.963    30 -1073    95  -120   667   286    56-0.048     3     0 11.74  0.00  1.00 201.5  0.65  85.5  69.5  1.00  0.00  0.00  0.00  0.00   0.0  0.06  0.00  0.00
 2019 217    49    48  23.1 0.178  44.1 0.413  1.39  25.5 0.887 0.104     1    51 -1071    96  -100   678   293    55-0.049     3     0 12.36  0.00  1.00 201.3  0.66 104.1  99.9  1.00  0.00  0.00  0.00  0.00   0.0  0.13  0.08  0.00
 2019 218    50    49  23.8 0.182  45.0 0.418  1.38  29.9 0.901 0.107 1.008    86 -1070    99   -68   697   304    56-0.051     3     0 12.98  0.00  1.00 201.2  0.66  98.8  99.9  1.00  0.00  0.00  0.00  0.00   0.0  0.08  0.02  0.00
 2019 219    51    50  24.0 0.187  45.9 0.426  1.36  16.4 0.925 0.108 1.033    96 -1069    99   -57   704   308    54-0.050     3     0 13.60  0.00  1.00 201.1  0.67 101.3  99.9  1.00  0.00  0.00  0.00  0.00   0.0  0.06  0.00  0.00
 2019 220    52    51  24.0 0.191  46.8 0.429  1.33  33.4 0.934 0.111 1.045   142 -1067   103   -16   728   323    55-0.053     3     0 14.21  0.00  1.00 200.9  0.68 108.6  99.9  1.00  0.00  0.00  0.00  0.00   0.0  0.07  0.00  0.00
 2019 221    53    52  24.2 0.196  47.7 0.440  1.37  46.4 0.966 0.116 1.082   199 -1064   107    34   758   341    58-0.058     3     0 14.84  8.09  1.00 200.8  0.69 102.0  70.5  1.00  0.00  0.00  0.00  0.00   0.0  0.06  0.00  0.00
 2019 222    54    53  24.4 0.200  48.6 0.453  1.31  42.4 1.004 0.119 1.124   243 -1062   110    74   781   355    59-0.062     3     0 15.52  3.88  1.00 200.7  0.69  93.7  67.5  1.00  0.00  0.00  0.00  0.00   0.0  0.04  0.00  0.00
 2019 223    55    54  24.2 0.205  49.5 0.462  1.16  33.7 1.035 0.122 1.157   277 -1061   113   105   799   367    59-0.065     3     0 16.23  2.79  1.00 200.6  0.70  87.1  70.4  1.00  0.00  0.00  0.00  0.00   0.0  0.05  0.00  0.00
 2019 224    56    55  24.3 0.210  50.4 0.470  1.39  31.0 1.058 0.125 1.183   306 -1059   115   133   816   376    59-0.067     3     0 16.97  2.22  1.00 200.6  0.71  83.6  88.6  1.00  0.00  0.00  0.00  0.00   0.0  0.05  0.00  0.00
 2019 225    57    56  25.0 0.214  51.4 0.477  1.22  54.1 1.080 0.131 1.211   382 -1056   121   199   855   400    62-0.078     3     0 17.74  1.48  1.00 200.6  0.72  78.0  40.6  1.00  0.00  0.00  0.00  0.00   0.0  0.00  0.00  0.00
 2019 226    58    57  24.6 0.219  52.3 0.493  1.29  51.1 1.132 0.135 1.267   434 -1054   124   245   883   416    64-0.085     3     0 18.57  1.27  1.00 200.6  0.72  74.8  44.1  1.00  0.00  0.00  0.00  0.00   0.0  0.02  0.00  0.00
 2019 227    59    58  24.0 0.223  53.1 0.504  1.42  39.4 1.169 0.138 1.307   468 -1053   127   277   902   427    64-0.090     3     0 19.41  1.16  1.00 200.5  0.73  76.7  65.4  1.00  0.00  0.00  0.00  0.00   0.0  0.07  0.00  0.00
 2019 228    60    59  24.4 0.228  54.0 0.511  1.29  39.1 1.194 0.142 1.335   512 -1051   130   317   925   443    65-0.097     3     0 20.26  1.01  1.00 200.4  0.74  78.6  60.9  1.00  0.00  0.00  0.00  0.00   0.0  0.04  0.00  0.00
 2019 229    61    60  23.5 0.232  54.9 0.520  1.42  59.1 1.223 0.147 1.371   584 -1048   135   380   962   466    68-0.113     3     0 21.13  0.85  1.00 200.2  0.75  85.4  49.0  1.00  0.00  0.00  0.00  0.00   0.0  0.10  0.04  0.00
 2019 230    62    61  24.8 0.237  55.8 0.534  1.24  45.8 1.271 0.151 1.423   629 -1047   139   422   988   480    69-0.124     3     0 22.02  0.81  1.00 200.2  0.76  86.3  54.2  1.00  0.00  0.00  0.00  0.00   0.0  0.01  0.00  0.00
 2019 231    63    62  22.4 0.241  56.5 0.542  1.23  25.9 1.302 0.153 1.455   646 -1046   140   439   998   487    67-0.125     3     0 22.90  0.79  1.00 200.0  0.76  98.5  99.9  1.00  0.00  0.00  0.00  0.00   0.0  0.17  0.13  0.00
 2019 232    64    63  23.7 0.246  57.3 0.546  1.07  39.0 1.318 0.157 1.475   699 -1044   143   487  1025   505    69-0.141     3     0 23.79  0.69  1.00 199.9  0.77 103.4  66.7  1.00  0.00  0.00  0.00  0.00   0.0  0.09  0.02  0.00
 2019 233    65    64  24.2 0.250  58.2 0.556  1.31  38.1 1.353 0.160 1.513   735 -1042   146   521  1045   518    69-0.153     3     0 24.70  0.66  1.00 199.8  0.78 114.1  92.8  1.00  0.00  0.00  0.00  0.00   0.0  0.06  0.00  0.00
 2019 234    66    65  24.4 0.255  59.0 0.563  1.21  61.2 1.378 0.166 1.545   817 -1039   152   592  1086   546    72-0.197     3     0 25.66  0.58  1.00 199.8  0.79 118.7  54.8  1.00  0.00  0.00  0.00  0.00   0.0  0.04  0.00  0.00
 2019 235    67    66  23.8 0.260  59.8 0.576  1.33  63.4 1.432 0.172 1.603   884 -1037   157   652  1121   567    75-0.249     4     0 26.64  0.56  1.00 199.6  0.80 123.5  61.3  1.00  0.00  0.00  0.00  0.00   0.0  0.08  0.02  0.00
 2019 236    68    67  23.1 0.264  60.6 0.588  1.25  41.9 1.478 0.175 1.652   918 -1036   159   684  1142   578    75-0.279     4     0 27.67  0.55  1.00 199.5  0.80 114.5  82.4  1.00  0.00  0.00  0.00  0.00   0.0  0.13  0.08  0.00
 2019 237    69    68  24.0 0.269  61.4 0.594  1.20  53.3 1.501 0.180 1.681   983 -1033   164   742  1176   600    77-0.380     4     0 28.71  0.50  1.00 199.4  0.81 104.9  55.8  1.00  0.00  0.00  0.00  0.00   0.0  0.07  0.00  0.00
 2019 238    70    69  23.8 0.273  62.2 0.605  1.28  64.0 1.548 0.186 1.733  1056 -1031   169   807  1214   624    79-0.614     4     0 29.78  0.47  1.00 199.3  0.82  96.9  46.3  1.00  0.00  0.00  0.00  0.00   0.0  0.08  0.02  0.00
 2019 239    71    70  24.5 0.278  63.1 0.616  1.22  30.3 1.596 0.187 1.783  1071 -1030   170   823  1223   631    77-0.674     4     0 30.88  0.48  1.00 199.3  0.83 121.4  99.9  1.00  0.00  0.00  0.00  0.00   0.0  0.04  0.00  0.00
 2019 240    72    71  24.4 0.282  63.9 0.619  1.36  78.0 1.608 0.195 1.803  1176 -1027   178   914  1275   666    84-9.718     4     0 31.98  0.42  1.00 199.2  0.83 120.4  49.4  1.00  0.00  0.00  0.00  0.00   0.0  0.04  0.00  0.00
 2019 241    73    72  24.5 0.287  64.8 0.634  1.26  61.7 1.676 0.200 1.876  1237 -1025   182   968  1308   685    86 1.670     4     0 33.18  0.44  1.00 199.2  0.84 114.4  54.8  1.00  0.00  0.00  0.00  0.00   0.0  0.03  0.00  0.00
 2019 242    74    73  25.1 0.291  65.6 0.642  1.17  77.2 1.714 0.208 1.922  1332 -1022   189  1052  1358   716    90 0.615     4     0 34.43  0.41  1.00 199.3  0.85 108.5  38.0  1.00  0.00  0.00  0.00  0.00   0.0  0.00  0.00  0.00
 2019 243    75    74  25.8 0.296  66.6 0.658  1.24  55.8 1.786 0.212 1.998  1378 -1020   192  1096  1384   732    90 0.467     5     0 35.77  0.41  1.00 199.4  0.86 104.5  53.2  1.00  0.00  0.00  0.00  0.00   0.0  0.00  0.00  0.00
 2019 244    76    75  24.4 0.300  67.4 0.665  1.36  71.8 1.821 0.218 2.039  1461 -1018   198  1169  1428   759    93 0.337     5     0 37.13  0.39  1.00 199.4  0.87 102.4  45.6  1.00  0.00  0.00  0.00  0.00   0.0  0.04  0.00  0.00
 2019 245    77    76  25.0 0.305  68.2 0.676  1.19  63.6 1.879 0.224 2.102  1530 -1015   203  1232  1462   785    95 0.275     5     0 38.56  0.38  1.00 199.4  0.88  96.9  42.0  1.00  0.00  0.00  0.00  0.00   0.0  0.00  0.00  0.00
 2019 246    78    77  25.5 0.309  69.1 0.685  1.07  59.5 1.924 0.229 2.154  1595 -1013   208  1291  1497   807    96 0.235     5     0 40.06  0.37  1.00 199.5  0.89  95.2  39.5  1.00  0.00  0.00  0.00  0.00   0.0  0.00  0.00  0.00
 2019 247    79    78  24.7 0.314  70.0 0.694  1.42  81.2 1.971 0.236 2.207  1683 -1010   214  1370  1543   837    99 0.199     5     0 41.55  0.35  1.00 199.5  0.89  99.1  40.7  1.00  0.00  0.00  0.00  0.00   0.0  0.02  0.00  0.00
 2019 248    80    79  25.2 0.318  70.8 0.704  1.31  65.8 2.031 0.242 2.273  1749 -1008   218  1430  1579   859   100 0.178     5     0 43.08  0.35  1.00 199.5  0.90  99.2  45.6  1.00  0.00  0.00  0.00  0.00   0.0  0.00  0.00  0.00
 2019 249    81    80  25.3 0.323  71.7 0.712  1.30  96.1 2.074 0.250 2.324  1868 -1005   226  1523  1632   896   118 0.174     5     0 44.67  0.33  1.00 199.6  0.91  97.0  30.4  1.00  0.00  0.00  0.00  0.00   0.0  0.00  0.00  0.00
 2019 250    82    81  25.3 0.327  72.5 0.725  1.25  84.2 2.150 0.256 2.406  1954 -1002   232  1600  1675   928   121 0.158     6     0 46.33  0.37  1.00 199.7  0.92  96.1  33.0  1.00  0.00  0.00  0.00  0.00   0.0  0.00  0.00  0.00
 2019 251    83    82  23.6 0.332  73.3 0.734  1.33  77.7 2.207 0.262 2.470  2031 -1000   238  1671  1715   956   122 0.145     6     0 47.96  0.36  1.00 199.6  0.93 100.9  41.3  1.00  0.00  0.00  0.00  0.00   0.0  0.09  0.03  0.00
 2019 252    84    83  24.6 0.336  74.1 0.742  1.24  77.6 2.260 0.269 2.529  2118  -997   244  1750  1760   988   124 0.133     6     0 49.64  0.35  1.00 199.6  0.94 122.3  45.5  1.00  0.00  0.00  0.00  0.00   0.0  0.03  0.00  0.00
 2019 253    85    84  24.6 0.341  74.9 0.751  1.21  64.1 2.318 0.274 2.592  2180  -995   248  1808  1792  1012   124 0.124     6     0 51.36  0.34  1.00 199.6  0.95 120.6  52.9  1.00  0.00  0.00  0.00  0.00   0.0  0.02  0.00  0.00
 2019 254    86    85  24.0 0.346  75.6 0.757  1.38  98.2 2.360 0.282 2.642  2297  -992   256  1904  1845  1050   138 0.124     6     0 53.07  0.33  1.00 199.5  0.95 117.6  39.3  1.00  0.00  0.00  0.00  0.00   0.0  0.07  0.00  0.00
 2019 255    87    86  25.1 0.350  76.5 0.766  1.16  87.2 2.423 0.289 2.712  2394  -989   263  1989  1888  1089   143 0.118     7     0 54.84  0.35  1.00 199.5  0.96 110.6  34.0  1.00  0.00  0.00  0.00  0.00   0.0  0.00  0.00  0.00
 2019 256    88    87  24.7 0.355  77.3 0.775  1.35  97.4 2.487 0.295 2.782  2496  -985   269  2071  1929  1128   156 0.119     7     0 56.69  0.34  1.00 199.5  0.97 110.2  35.8  1.00  0.00  0.00  0.00  0.00   0.0  0.02  0.00  0.00
 2019 257    89    88  24.8 0.359  78.0 0.782  1.38  85.0 2.540 0.301 2.840  2580  -982   275  2148  1965  1165   157 0.112     8     0 58.58  0.36  1.00 199.5  0.98 137.1  51.7  1.00  0.00  0.00  0.00  0.00   0.0  0.01  0.00  0.00
 2019 258    90    89  24.4 0.364  78.8 0.788  1.41  89.7 2.588 0.307 2.895  2677  -979   281  2234  2008  1205   162 0.109     8     0 60.48  0.35  1.00 199.5  0.99 148.5  54.7  1.00  0.00  0.00  0.00  0.00   0.0  0.04  0.00  0.00
 2019 259    91    90  25.3 0.368  79.6 0.795  1.12  55.9 2.644 0.311 2.955  2727  -977   284  2283  2033  1227   160 0.103     8     0 62.48  0.36  1.00 199.5  1.00 141.6  64.8  1.00  0.00  0.00  0.00  0.00   0.0  0.00  0.00  0.00
 2019 260    92    91  25.3 0.373  80.5 0.799  1.15  85.3 2.675 0.317 2.991  2831  -974   290  2362  2070  1266   179 0.109     8     0 64.50  0.34  1.00 199.6  1.01 133.6  41.1  1.00  0.00  0.00  0.00  0.00   0.0  0.00  0.00  0.00
 2019 261    93    92  24.1 0.377  81.2 0.805  1.42  91.1 2.727 0.322 3.049  2922  -971   296  2440  2105  1306   187 0.108     9     0 66.53  0.37  1.00 199.5  1.01 131.4  48.2  1.00  0.00  0.00  0.00  0.00   0.0  0.06  0.00  0.00
 2019 262    94    93  25.0 0.382  82.0 0.811  1.24  80.3 2.773 0.327 3.100  3008  -968   301  2514  2137  1345   193 0.106     9     0 68.62  0.37  1.00 199.6  1.02 131.5  46.7  1.00  0.00  0.00  0.00  0.00   0.0  0.00  0.00  0.00
 2019 263    95    94  25.1 0.386  82.8 0.815  1.35 105.9 2.815 0.332 3.148  3129  -965   307  2593  2173  1385   229 0.118    10     0 70.79  0.37  1.00 199.6  1.03 137.5  40.3  1.00  0.00  0.00  0.00  0.00   0.0  0.00  0.00  0.00
 2019 264    96    95  25.6 0.391  83.6 0.820  1.22  93.7 2.856 0.338 3.194  3226  -962   312  2669  2206  1424   245 0.120    11     0 73.02  0.43  1.00 199.7  1.04 133.3  39.6  1.00  0.00  0.00  0.00  0.00   0.0  0.00  0.00  0.00
 2019 265    97    96  25.7 0.395  84.4 0.825  1.24 108.8 2.908 0.342 3.250  3347  -959   318  2743  2238  1464   286 0.132    12     0 75.28  0.45  1.00 199.7  1.05 128.1  33.2  1.00  0.00  0.00  0.00  0.00   0.0  0.00  0.00  0.00
 2019 266    98    97  25.5 0.400  85.2 0.830  1.28  94.5 2.950 0.347 3.297  3438  -956   322  2816  2268  1504   299 0.133    14     0 77.65  0.51  1.00 199.8  1.06 121.2  37.5  1.00  0.00  0.00  0.00  0.00   0.0  0.00  0.00  0.00
 2019 267    99    98  26.2 0.404  86.1 0.834  1.22 104.1 2.990 0.351 3.342  3554  -953   327  2886  2295  1544   340 0.144    15     0 80.09  0.52  1.00 199.9  1.07 115.0  30.3  1.00  0.00  0.00  0.00  0.00   0.0  0.00  0.00  0.00
 2019 268   100    99  26.2 0.408  86.9 0.837  1.21  94.8 3.028 0.355 3.383  3649  -950   331  2956  2322  1584   361 0.147    17     0 82.62  0.58  1.00 200.0  1.08 112.3  32.2  1.00  0.00  0.00  0.00  0.00   0.0  0.00  0.00  0.00
 2019 269   101   100  24.5 0.413  87.6 0.841  1.50  93.3 3.064 0.361 3.425  3738  -947   337  3035  2357  1624   366 0.144    18     0 85.11  0.60  1.00 199.9  1.08 115.9  43.4  1.00  0.00  0.00  0.00  0.00   0.0  0.03  0.00  0.00
 2019 270   102   101  24.6 0.417  88.4 0.845  1.37  97.6 3.106 0.365 3.471  3847  -944   342  3106  2386  1664   399 0.150    18     0 87.58  0.59  1.00 199.9  1.09 131.0  42.7  1.00  0.00  0.00  0.00  0.00   0.0  0.02  0.00  0.00
 2019 271   103   102  24.8 0.422  89.1 0.849  1.23 117.2 3.148 0.368 3.517  3984  -941   346  3171  2408  1705   467 0.167    20     0 90.08  0.63  1.00 199.9  1.10 126.1  30.5  1.00  0.00  0.00  0.00  0.00   0.0  0.01  0.00  0.00
 2019 272   104   103  25.0 0.426  89.9 0.851  1.27  81.1 3.177 0.372 3.550  4050  -938   350  3240  2433  1745   461 0.161    23     0 92.57  0.72  1.00 199.9  1.11 124.9  45.0  1.00  0.00  0.00  0.00  0.00   0.0  0.00  0.00  0.00
 2019 273   105   104  24.6 0.431  90.6 0.854  1.41 105.7 3.211 0.377 3.588  4168  -935   355  3314  2465  1785   499 0.167    23     0 95.02  0.70  1.00 199.9  1.12 125.6  38.9  1.00  0.00  0.00  0.00  0.00   0.0  0.03  0.00  0.00
 2019 274   106   105  24.4 0.435  91.3 0.858  1.35  80.4 3.248 0.381 3.629  4242  -932   359  3384  2491  1825   499 0.163    25     0 97.51  0.74  1.00 199.9  1.13 128.0  50.1  1.00  0.00  0.00  0.00  0.00   0.0  0.04  0.00  0.00
 2019 275   107   106  24.5 0.440  92.0 0.861  1.28  73.9 3.287 0.385 3.671  4319  -930   364  3451  2515  1865   505 0.161    25     0 100.0  0.72  1.00 199.9  1.14 131.4  52.6  1.00  0.00  0.00  0.00  0.00   0.0  0.04  0.00  0.00
 2019 276   108   107  25.5 0.444  92.7 0.863  1.16  77.2 3.318 0.389 3.707  4406  -927   368  3520  2542  1906   518 0.161    25     0 102.6  0.72  1.00 199.9  1.15 127.4  43.6  1.00  0.00  0.00  0.00  0.00   0.0  0.00  0.00  0.00
 2019 277   109   108  24.2 0.449  93.4 0.866  1.38 116.7 3.349 0.392 3.741  4538  -924   372  3585  2563  1946   581 0.173    26     0 105.1  0.72  1.00 199.9  1.15 123.5  34.1  1.00  0.00  0.00  0.00  0.00   0.0  0.06  0.00  0.00
 2019 278   110   109  25.0 0.453  94.1 0.869  1.15  83.1 3.382 0.395 3.777  4616  -921   375  3647  2582  1986   593 0.173    29     0 107.7  0.80  1.00 199.9  1.16 119.2  37.7  1.00  0.00  0.00  0.00  0.00   0.0  0.00  0.00  0.00
 2019 279   111   110  24.6 0.458  94.8 0.871  1.30  84.1 3.407 0.399 3.806  4699  -918   379  3712  2605  2026   608 0.173    30     0 110.4  0.80  1.00 199.9  1.17 126.4  45.1  1.00  0.00  0.00  0.00  0.00   0.0  0.03  0.00  0.00
 2019 280   112   111  23.5 0.463  95.5 0.873  1.43  95.3 3.437 0.402 3.839  4800  -916   383  3776  2628  2064   641 0.177    30     0 113.0  0.81  1.00 199.9  1.18 136.6  48.6  1.00  0.00  0.00  0.00  0.00   0.0  0.10  0.04  0.00
 2019 281   113   112  23.9 0.467  96.1 0.875  1.28  71.1 3.463 0.405 3.868  4866  -913   387  3837  2646  2104   643 0.175    32     0 115.6  0.83  1.00 199.8  1.19 138.3  58.3  1.00  0.00  0.00  0.00  0.00   0.0  0.07  0.01  0.00
 2019 282   114   113  24.0 0.472  96.8 0.877  1.20  97.9 3.490 0.408 3.897  4984  -910   390  3897  2664  2143   698 0.184    32     0 118.2  0.83  1.00 199.8  1.19 135.1  38.4  1.00  0.00  0.00  0.00  0.00   0.0  0.07  0.00  0.00
 2019 283   115   114  24.9 0.476  97.5 0.878  1.24 100.0 3.513 0.411 3.924  5088  -907   394  3962  2686  2183   732 0.187    35     0 120.8  0.88  1.00 199.8  1.20 141.5  40.1  1.00  0.00  0.00  0.00  0.00   0.0  0.01  0.00  0.00
 2019 284   116   115  25.4 0.481  98.2 0.880  1.32 110.0 3.540 0.414 3.953  5203  -905   397  4023  2705  2223   783 0.195    37     0 123.5  0.91  1.00 199.8  1.21 155.1  42.2  1.00  0.00  0.00  0.00  0.00   0.0  0.00  0.00  0.00
 2019 285   117   116  24.8 0.485  98.9 0.882  1.42 111.7 3.567 0.416 3.984  5315  -902   400  4082  2721  2262   832 0.202    39     0 126.3  0.96  1.00 199.8  1.22 149.8  43.7  1.00  0.00  0.00  0.00  0.00   0.0  0.02  0.00  0.00
 2019 286   118   117  25.4 0.490  99.6 0.884  1.29 107.6 3.589 0.420 4.009  5429  -899   404  4146  2743  2302   879 0.207    42     0 129.2  1.00  1.00 199.9  1.23 145.9  39.7  1.00  0.00  0.00  0.00  0.00   0.0  0.00  0.00  0.00
 2019 287   119   118  25.9 0.494 100.4 0.886  1.08  98.8 3.615 0.422 4.037  5536  -897   407  4205  2760  2341   924 0.212    44     0 132.2  1.05  1.00 199.9  1.24 141.9  34.7  1.00  0.00  0.00  0.00  0.00   0.0  0.00  0.00  0.00
 2019 288   120   119  25.1 0.499 101.1 0.888  1.38 111.6 3.642 0.425 4.066  5644  -894   410  4263  2776  2381   972 0.218    46     0 135.2  1.08  1.00 199.9  1.25 144.2  40.8  1.00  0.00  0.00  0.00  0.00   0.0  0.00  0.00  0.00
 2019 289   121   120  24.9 0.503 101.8 0.889  1.40  52.0 3.663 0.427 4.090  5669  -891   412  4320  2791  2420   937 0.209    49     0 138.2  1.12  1.00 199.9  1.26 157.0  96.4  1.00  0.00  0.00  0.00  0.00   0.0  0.01  0.00  0.00
 2019 290   122   121  24.6 0.508 102.4 0.890  1.33 114.4 3.683 0.430 4.113  5821  -889   416  4382  2812  2459  1023 0.221    47     0 141.2  1.07  1.00 199.9  1.26 160.8  43.1  1.00  0.00  0.00  0.00  0.00   0.0  0.03  0.00  0.00
 2019 291   123   122  24.2 0.512 103.1 0.892  1.34 105.4 3.707 0.433 4.140  5924  -886   418  4440  2827  2499  1066 0.225    51     0 144.2  1.15  1.00 199.9  1.27 156.6  46.0  1.00  0.00  0.00  0.00  0.00   0.0  0.05  0.00  0.00
 2019 292   124   123  23.9 0.517 103.7 0.893  1.31  87.6 3.730 0.435 4.165  6006  -884   421  4495  2842  2537  1090 0.226    53     0 147.0  1.19  1.00 199.9  1.28 152.6  53.2  1.00  0.00  0.00  0.00  0.00   0.0  0.08  0.01  0.00
 2019 293   125   124  23.3 0.521 104.3 0.895  1.30 113.3 3.749 0.437 4.186  6136  -881   424  4552  2859  2574  1160 0.234    55     0 149.8  1.20  1.00 199.8  1.29 147.4  40.0  1.00  0.00  0.00  0.00  0.00   0.0  0.11  0.06  0.00
 2019 294   126   125  25.0 0.526 104.9 0.896  1.01  66.3 3.769 0.440 4.209  6191  -879   427  4607  2873  2612  1157 0.231    58     0 152.7  1.26  1.00 199.8  1.30 141.2  48.7  1.00  0.00  0.00  0.00  0.00   0.0  0.00  0.00  0.00
 2019 295   127   126  25.8 0.530 105.7 0.897  1.03  87.4 3.789 0.442 4.232  6291  -876   429  4665  2889  2651  1197 0.234    58     0 155.7  1.24  1.00 199.9  1.31 134.7  35.6  1.00  0.00  0.00  0.00  0.00   0.0  0.00  0.00  0.00
 2019 296   128   127  25.8 0.535 106.4 0.898  1.19  99.5 3.808 0.444 4.252  6392  -873   432  4721  2904  2690  1240 0.238    60     0 158.8  1.27  1.00 199.9  1.31 136.9  36.6  1.00  0.00  0.00  0.00  0.00   0.0  0.00  0.00  0.00
 2019 297   129   128  24.6 0.539 107.0 0.900  1.39  48.7 3.832 0.447 4.278  6414  -871   434  4776  2918  2728  1205 0.230    62     0 161.9  1.30  1.00 199.9  1.32 152.4  99.9  1.00  0.00  0.00  0.00  0.00   0.0  0.03  0.00  0.00
 2019 298   130   129  24.8 0.544 107.7 0.901  1.21 100.4 3.850 0.449 4.298  6550  -868   436  4830  2932  2766  1284 0.239    60     0 165.1  1.25  1.00 199.9  1.33 165.1  45.5  1.00  0.00  0.00  0.00  0.00   0.0  0.02  0.00  0.00
 2019 299   131   130  24.6 0.548 108.3 0.902  1.33  88.2 3.868 0.451 4.319  6631  -866   439  4887  2948  2805  1305 0.240    64     0 168.3  1.31  1.00 199.9  1.34 171.6  59.4  1.00  0.00  0.00  0.00  0.00   0.0  0.02  0.00  0.00
 2019 300   132   131  24.0 0.553 108.9 0.903  1.40  84.3 3.888 0.453 4.341  6714  -863   441  4941  2962  2843  1331 0.241    65     0 171.4  1.32  1.00 199.9  1.35 199.8  76.9  1.00  0.00  0.00  0.00  0.00   0.0  0.07  0.00  0.00
 2019 301   133   132  23.6 0.557 109.5 0.904  1.31  94.2 3.907 0.455 4.362  6818  -861   444  4995  2976  2879  1380 0.245    67     0 174.4  1.33  1.00 199.8  1.36 188.6  61.4  1.00  0.00  0.00  0.00  0.00   0.0  0.09  0.03  0.00
 2019 302   134   133  23.3 0.562 110.0 0.905  1.29  86.7 3.923 0.457 4.380  6904  -859   446  5043  2987  2915  1415 0.247    69     0 177.3  1.37  1.00 199.8  1.37 178.1  62.2  1.00  0.00  0.00  0.00  0.00   0.0  0.11  0.06  0.00
 2019 303   135   134  25.1 0.566 110.7 0.906  1.01  92.9 3.939 0.459 4.398  7015  -856   448  5096  3000  2953  1471 0.252    71     0 180.3  1.39  1.00 199.8  1.37 165.6  40.4  1.00  0.00  0.00  0.00  0.00   0.0  0.00  0.00  0.00
 2019 304   136   135  25.0 0.571 111.3 0.907  1.22 103.6 3.956 0.461 4.417  7117  -854   450  5150  3013  2990  1518 0.256    74     0 183.4  1.43  1.00 199.8  1.38 154.7  41.2  1.00  0.00  0.00  0.00  0.00   0.0  0.00  0.00  0.00
 2019 305   137   136  25.6 0.575 112.0 0.908  1.08 110.1 3.972 0.463 4.435  7240  -851   452  5202  3026  3028  1586 0.262    76     0 186.6  1.46  1.00 199.8  1.39 144.6  31.9  1.00  0.00  0.00  0.00  0.00   0.0  0.00  0.00  0.00
 2019 306   138   137  24.2 0.580 112.6 0.909  1.29 112.0 3.990 0.465 4.455  7345  -849   454  5254  3038  3065  1638 0.266    79     0 189.9  1.51  1.00 199.8  1.40 141.5  37.7  1.00  0.00  0.00  0.00  0.00   0.0  0.05  0.00  0.00
 2019 307   139   138  26.2 0.584 113.3 0.910  1.02  84.9 4.007 0.467 4.473  7430  -847   456  5307  3052  3102  1667 0.267    82     0 193.4  1.54  1.00 199.9  1.41 136.0  36.2  1.00  0.00  0.00  0.00  0.00   0.0  0.00  0.00  0.00
 2019 308   140   139  26.2 0.589 114.0 0.911  0.87  93.8 4.024 0.469 4.493  7538  -844   457  5358  3063  3139  1722 0.271    83     0 197.0  1.56  1.00 199.9  1.42 129.1  26.4  1.00  0.00  0.00  0.00  0.00   0.0  0.00  0.00  0.00
 2019 309   141   140  26.2 0.593 114.7 0.911  0.82  85.4 4.041 0.470 4.511  7623  -842   459  5408  3074  3176  1756 0.273    86     0 200.7  1.59  1.00 199.9  1.43 123.6  26.1  1.00  0.00  0.00  0.00  0.00   0.0  0.00  0.00  0.00
 2019 310   142   141  26.4 0.597 115.4 0.912  0.77  80.8 4.057 0.472 4.529  7705  -839   460  5460  3087  3212  1786 0.274    88     0 204.5  1.61  1.00 199.9  1.44 119.1  24.8  1.00  0.00  0.06  0.00  0.00   0.0  0.00  0.00  0.00
 2019 311   143   142  26.2 0.600 115.9 0.913  0.89  91.3 4.072 0.474 4.546  7797  -837   461  5510  3098  3249  1826 0.276    89     0 208.4  1.62  1.00 200.0  1.45 115.1  24.7  1.00  0.00  0.19  0.00  0.00   0.0  0.00  0.00  0.00
 2019 312   144   143  25.9 0.603 116.4 0.914  0.81  86.2 4.088 0.476 4.564  7886  -835   462  5561  3110  3285  1862 0.278    91     0 212.3  1.64  1.00 200.0  1.46 113.1  23.6  1.00  0.00  0.30  0.00  0.00   0.0  0.00  0.00  0.00
 2019 313   145   144  25.0 0.606 116.8 0.915  0.67  65.0 4.103 0.477 4.581  7948  -832   463  5608  3119  3321  1876 0.277    93     0 216.3  1.66  1.00 200.0  1.47 111.9  26.0  1.00  0.05  0.36  0.00  0.00   0.0  0.00  0.00  0.00
 2019 314   146   145  26.4 0.609 117.2 0.915  0.86  70.5 4.117 0.479 4.596  8014  -830   464  5656  3129  3358  1894 0.277    94     0 220.2  1.66  1.00 200.0  1.48 111.3  29.8  1.00  0.11  0.41  0.00  0.00   0.0  0.00  0.00  0.00
 2019 315   147   146  26.1 0.611 117.6 0.916  0.84  71.7 4.129 0.480 4.609  8088  -828   465  5703  3137  3393  1920 0.278    95     0 224.1  1.66  1.00 200.0  1.49 111.3  28.9  1.00  0.16  0.44  0.00  0.00   0.0  0.00  0.00  0.00
 2019 316   148   147  25.8 0.613 117.9 0.917  1.00  86.8 4.142 0.481 4.623  8176  -825   465  5749  3146  3429  1961 0.281    96     0 228.0  1.67  1.00 200.1  1.50 124.9  32.1  1.00  0.17  0.45  0.00  0.00   0.0  0.00  0.00  0.00
 2019 317   149   148  25.9 0.617 118.5 0.917  1.21  85.2 4.153 0.482 4.636  8254  -823   466  5795  3154  3465  1993 0.282    98     0 231.8  1.69  1.00 200.1  1.51 137.8  43.4  1.00  0.00  0.16  0.00  0.00   0.0  0.00  0.00  0.00
 2019 318   150   149  26.5 0.621 119.2 0.918  0.94  72.8 4.162 0.484 4.645  8332  -821   467  5839  3160  3500  2025 0.283   100     0 235.5  1.71  1.00 200.1  1.52 135.6  38.4  1.00  0.00  0.00  0.00  0.00   0.0  0.00  0.00  0.00
 2019 319   151   150  26.1 0.626 119.8 0.918  0.94  87.3 4.173 0.484 4.658  8427  -819   467  5883  3166  3535  2076 0.287   101     0 239.3  1.72  1.00 200.1  1.53 131.9  31.3  1.00  0.00  0.00  0.00  0.00   0.0  0.00  0.00  0.00
 2019 320   152   151  26.4 0.630 120.5 0.919  0.86  88.9 4.182 0.486 4.667  8521  -816   468  5928  3174  3571  2125 0.290   104     0 243.1  1.75  1.00 200.1  1.54 127.6  27.2  1.00  0.00  0.00  0.00  0.00   0.0  0.00  0.00  0.00
 2019 321   153   152  26.1 0.634 121.1 0.919  0.75  76.9 4.190 0.487 4.676  8598  -814   469  5971  3180  3606  2159 0.291   106     0 247.1  1.78  1.00 200.1  1.55 123.2  26.3  1.00  0.00  0.09  0.00  0.00   0.0  0.00  0.00  0.00
 2019 322   154   153  26.0 0.637 121.6 0.920  0.77  79.5 4.200 0.488 4.688  8679  -812   469  6016  3188  3640  2193 0.293   108     0 251.1  1.79  1.00 200.1  1.56 119.6  25.6  1.00  0.00  0.25  0.00  0.00   0.0  0.00  0.00  0.00
 2019 323   155   154  26.4 0.640 122.0 0.920  0.67  68.8 4.211 0.489 4.700  8747  -810   470  6061  3196  3675  2217 0.293   110     0 255.0  1.81  1.00 200.2  1.57 118.3  25.4  1.00  0.07  0.38  0.00  0.00   0.0  0.00  0.00  0.00
 2019 324   156   155  26.8 0.642 122.4 0.921  0.59  45.5 4.222 0.490 4.712  8785  -808   470  6107  3205  3710  2208 0.290   111     0 259.0  1.81  1.00 200.2  1.58 117.5  33.3  1.00  0.16  0.44  0.00  0.00   0.0  0.00  0.00  0.00
 2019 325   157   156  26.4 0.644 122.7 0.921  0.67  44.9 4.232 0.491 4.724  8827  -805   470  6150  3211  3744  2207 0.289   110     0 263.0  1.79  1.00 200.2  1.59 117.2  38.6  1.00  0.23  0.49  0.00  0.00   0.0  0.00  0.00  0.00
 2019 326   158   157  26.0 0.646 123.0 0.921  0.80  64.6 4.239 0.492 4.731  8896  -803   471  6191  3216  3778  2234 0.290   110 0.918 267.0  1.78  1.00 200.2  1.60 117.2  32.3  1.00  0.28  0.52  0.00  0.00   0.0  0.00  0.00  0.00
 2019 327   159   158  26.9 0.648 123.3 0.921  0.51  45.7 4.235 0.491 4.727  8942  -801   471  6222  3211  3812  2249 0.290   112 4.073 271.0  1.80  1.00 200.2  1.61 117.3  28.6  1.00  0.32  0.55  0.00  0.00   0.0  0.00  0.00  0.00
 2019 328   160   159  26.5 0.650 123.6 0.921  0.50  52.0 4.225 0.490 4.715  8994  -799   471  6250  3203  3846  2273 0.291   112 8.198 275.0  1.80  1.00 200.3  1.62 117.5  24.7  1.00  0.35  0.56  0.00  0.00   0.0  0.00  0.00  0.00
 2019 329   161   160  25.5 0.651 123.9 0.920  0.42  44.0 4.203 0.487 4.690  9031  -797   471  6268  3186  3880  2291 0.292   114 15.09 279.0  1.81  1.00 200.3  1.63 117.7  25.1  1.00  0.37  0.58  0.00  0.00   0.0  0.00  0.00  0.00
 2019 330   162   161  26.1 0.653 124.1 0.918  0.40  40.8 4.174 0.484 4.658  9064  -795   471  6282  3163  3913  2311 0.293   115 23.25 283.0  1.82  1.00 200.3  1.64 118.0  25.3  1.00  0.40  0.60  0.00  0.00   0.0  0.00  0.00  0.00
 2019 331   163   162  24.9 0.655 124.4 0.917  0.36  37.9 4.147 0.481 4.627  9094  -793   471  6296  3142  3947  2327 0.294   116 30.69 287.1  1.83  1.00 200.3  1.65 118.3  25.6  1.00  0.42  0.62  0.00  0.00   0.0  0.01  0.00  0.00
 2019 332   164   163  23.9 0.657 124.6 0.915  0.30  30.9 4.114 0.477 4.591  9116  -790   471  6305  3116  3979  2339 0.295   116 39.55 291.1  1.85  1.00 200.3  1.66 118.6  26.3  1.00  0.45  0.63  0.00  0.00   0.0  0.07  0.01  0.00
 2019 333   165   164  24.3 0.658 124.7 0.914  0.31  32.2 4.083 0.473 4.557  9140  -788   471  6317  3093  4013  2351 0.296   117 47.66 295.1  1.85  1.00 200.3  1.67 118.9  26.3  1.00  0.47  0.65  0.00  0.00   0.0  0.05  0.00  0.00
 2019 334   166   165  24.6 0.660 124.9 0.912  0.28  28.9 4.050 0.469 4.520  9160  -786   471  6327  3068  4045  2362 0.296   118 56.31 299.1  1.86  1.00 200.3  1.68 119.3  26.3  1.00  0.49  0.66  0.00  0.00   0.0  0.02  0.00  0.00
 2019 335   167   166  23.8 0.661 125.1 0.910  0.28  27.7 4.012 0.465 4.477  9177  -784   471  6332  3039  4077  2374 0.297   118 66.07 303.1  1.86  1.00 200.3  1.69 119.7  28.1  1.00  0.51  0.67  0.00  0.00   0.0  0.08  0.02  0.00
 2019 336   168   167  24.1 0.663 125.3 0.908  0.31  31.0 3.975 0.461 4.436  9199  -782   470  6338  3011  4110  2390 0.298   119 75.06 307.0  1.87  1.00 200.2  1.70 120.1  27.4  1.00  0.53  0.69  0.00  0.00   0.0  0.06  0.00  0.00
 2019 337   169   168  24.5 0.664 125.4 0.906  0.34  27.9 3.941 0.457 4.398  9216  -780   470  6348  2986  4142  2397 0.298   120 83.60 310.9  1.88  1.00 200.2  1.71 120.5  33.2  1.00  0.55  0.70  0.00  0.00   0.0  0.04  0.00  0.00
 2019 338   170   169  24.2 0.665 125.6 0.904  0.26  23.6 3.906 0.453 4.359  9231  -778   470  6356  2959  4175  2405 0.299   120 92.80 314.8  1.89  1.00 200.2  1.72 120.8  30.6  1.00  0.56  0.71  0.00  0.00   0.0  0.05  0.00  0.00
 2019 339   171   170  24.8 0.667 125.8 0.902  0.26  26.0 3.879 0.449 4.329  9251  -776   470  6368  2937  4207  2413 0.299   120 99.93 318.6  1.89  1.00 200.2  1.73 121.2  27.9  1.00  0.58  0.72  0.00  0.00   0.0  0.01  0.00  0.00
 2019 340   172   171  23.7 0.668 125.9 0.901  0.21  21.5 3.856 0.447 4.303  9267  -774   470  6383  2919  4238  2414 0.299   121 105.8 322.4  1.89  1.00 200.2  1.74 121.7  27.5  1.00  0.60  0.73  0.00  0.00   0.0  0.09  0.02  0.00
 2019 341   173   172  23.2 0.669 126.0 0.900  0.16  16.8 3.834 0.444 4.278  9277  -772   469  6398  2903  4267  2410 0.298   121 111.4 326.3  1.89  1.00 200.2  1.75 122.1  27.8  1.00  0.62  0.74  0.00  0.00   0.0  0.12  0.06  0.00
 2019 342   174   173  24.1 0.670 126.2 0.898  0.17  17.2 3.812 0.442 4.253  9289  -770   469  6415  2886  4299  2405 0.297   121 116.9 330.2  1.88  1.00 200.2  1.76 122.6  27.7  1.00  0.63  0.76  0.00  0.00   0.0  0.06  0.00  0.00
 2019 343   175   174  23.2 0.671 126.3 0.897  0.16  16.8 3.793 0.440 4.232  9300  -768   468  6433  2873  4328  2399 0.296   120 121.8 334.2  1.87  1.00 200.2  1.77 123.0  27.7  1.00  0.65  0.77  0.00  0.00   0.0  0.12  0.06  0.00
 2019 344   176   175  22.8 0.672 126.4 0.896  0.18  18.2 3.774 0.437 4.212  9312  -766   467  6448  2858  4356  2397 0.295   120 126.9 338.1  1.86  1.00 200.2  1.78 123.5  28.9  1.00  0.67  0.78  0.00  0.00   0.0  0.15  0.10  0.00
 2019 345   177   176  23.9 0.673 126.5 0.895  0.16  16.3 3.752 0.435 4.187  9322  -765   467  6464  2841  4387  2392 0.294   120 132.4 342.0  1.85  1.00 200.2  1.79 124.0  28.9  1.00  0.68  0.79  0.00  0.00   0.0  0.07  0.01  0.00
 2019 346   178   177  23.5 0.674 126.6 0.894  0.15  15.1 3.733 0.432 4.165  9332  -763   467  6480  2827  4417  2385 0.293   120 137.4 345.8  1.85  1.00 200.2  1.80 124.4  29.2  1.00  0.70  0.80  0.00  0.00   0.0  0.10  0.05  0.00
 2019 347   179   178  23.2 0.675 126.7 0.892  0.13  13.5 3.714 0.430 4.144  9340  -761   466  6497  2812  4445  2378 0.292   119 142.2 349.7  1.84  1.00 200.2  1.81 124.9  28.9  1.00  0.71  0.81  0.00  0.00   0.0  0.12  0.06  0.00
 2019 348   180   179  23.2 0.676 126.8 0.891  0.13  11.7 3.696 0.428 4.125  9346  -759   465  6514  2799  4474  2367 0.290   119 146.6 353.5  1.83  1.00 200.2  1.82 125.4  33.2  1.00  0.73  0.82  0.00  0.00   0.0  0.12  0.07  0.00
 2019 349   181   180  23.4 0.677 126.9 0.890  0.13  12.2 3.674 0.426 4.100  9352  -757   465  6528  2782  4503  2360 0.289   118 152.1 357.3  1.81  1.00 200.2  1.83 125.8  31.5  1.00  0.74  0.83  0.00  0.00   0.0  0.11  0.05  0.00
 2019 350   182   181  23.6 0.677 126.9 0.888  0.10  10.1 3.650 0.423 4.073  9356  -755   464  6540  2763  4532  2353 0.288   118 158.0 361.1  1.80  1.00 200.2  1.84 126.3  29.9  1.00  0.76  0.84  0.00  0.00   0.0  0.09  0.03  0.00
 2019 351   183   182  24.4 0.678 127.0 0.886  0.11  10.7 3.622 0.419 4.042  9360  -753   463  6550  2741  4562  2346 0.287   118 164.4 365.0  1.80  1.00 200.2  1.85 126.8  29.8  1.00  0.77  0.85  0.00  0.00   0.0  0.04  0.00  0.00
 2019 352   184   183  25.1 0.679 127.1 0.884  0.10   8.6 3.588 0.415 4.003  9360  -751   463  6556  2715  4592  2341 0.286   117 172.2 368.9  1.79  1.00 200.2  1.86 127.4  31.7  1.00  0.79  0.86  0.00  0.00   0.0  0.00  0.00  0.00
 2019 353   185   184  25.0 0.679 127.2 0.881  0.11  10.5 3.553 0.412 3.965  9362  -750   462  6563  2691  4622  2337 0.286   117 180.1 372.8  1.78  1.00 200.2  1.87 127.9  30.4  1.00  0.80  0.86  0.00  0.00   0.0  0.00  0.00  0.00
 2019 354   186   185  23.7 0.680 127.2 0.880  0.08   7.8 3.527 0.409 3.936  9363  -748   461  6574  2671  4651  2327 0.285   117 186.6 376.8  1.78  1.00 200.2  1.88 128.5  30.6  1.00  0.81  0.87  0.00  0.00   0.0  0.09  0.02  0.00
 2019 355   187   186  22.9 0.680 127.3 0.878  0.08   7.7 3.503 0.406 3.909  9363  -746   460  6584  2653  4678  2319 0.284   116 192.6 380.7  1.77  1.00 200.2  1.89 129.1  31.1  1.00  0.82  0.88  0.00  0.00   0.0  0.14  0.09  0.00
 2019 356   188   187  23.3 0.681 127.4 0.876  0.06   6.2 3.477 0.403 3.880  9363  -744   460  6594  2633  4705  2309 0.282   116 198.9 384.6  1.76  1.00 200.2  1.90 129.7  30.2  1.00  0.83  0.89  0.00  0.00   0.0  0.11  0.05  0.00
 2019 357   189   188  22.9 0.681 127.4 0.874  0.06   5.7 3.452 0.400 3.852  9361  -743   459  6603  2614  4732  2299 0.281   115 205.1 388.5  1.75  1.00 200.2  1.91 130.3  30.3  1.00  0.84  0.89  0.00  0.00   0.0  0.14  0.10  0.00
 2019 358   190   189  23.4 0.682 127.5 0.872  0.05   5.0 3.424 0.397 3.820  9358  -741   458  6611  2593  4759  2289 0.280   115 211.9 392.4  1.74  1.00 200.2  1.92 130.9  30.2  1.00  0.85  0.90  0.00  0.00   0.0  0.11  0.05  0.00
 2019 359   191   190  23.6 0.682 127.5 0.869  0.05   5.3 3.392 0.393 3.785  9355  -739   457  6617  2569  4787  2281 0.279   114 219.6 396.3  1.73  1.00 200.2  1.93 131.4  30.6  1.00  0.86  0.91  0.00  0.00   0.0  0.09  0.03  0.00
 2019 360   192   191  23.5 0.683 127.5 0.866  0.04   4.2 3.354 0.388 3.743  9349  -737   456  6617  2539  4815  2277 0.279   114 228.6 400.2  1.72  1.00 200.2  1.94 132.0  32.2  1.00  0.88  0.92  0.00  0.00   0.0  0.10  0.04  0.00
 2019 361   193   192  23.4 0.683 127.6 0.863  0.04   4.0 3.319 0.384 3.703  9344  -735   455  6619  2512  4842  2270 0.278   114 236.7 404.1  1.72  1.00 200.2  1.95 132.5  34.6  1.00  0.89  0.92  0.00  0.00   0.0  0.11  0.05  0.00
 2019 362   194   193  23.1 0.683 127.6 0.861  0.03   3.2 3.283 0.380 3.663  9338  -734   454  6619  2485  4868  2265 0.278   114 244.8 407.9  1.71  1.00 200.2  1.96 133.1  32.6  1.00  0.90  0.93  0.00  0.00   0.0  0.13  0.08  0.00
 2019 363   195   194  22.6 0.684 127.6 0.858  0.03   3.4 3.248 0.376 3.624  9333  -732   453  6619  2458  4893  2260 0.277   113 252.8 411.8  1.71  1.00 200.2  1.97 133.6  32.5  1.00  0.91  0.94  0.00  0.00   0.0  0.16  0.11  0.00
 2019 364   196   195  22.4 0.684 127.7 0.855  0.03   3.1 3.214 0.372 3.586  9327  -731   452  6620  2433  4917  2256 0.277   113 260.5 415.6  1.71  1.00 200.2  1.98 134.0  32.7  1.00  0.93  0.95  0.00  0.00   0.0  0.18  0.14  0.00
 2019 365   197   196  23.0 0.684 127.7 0.852  0.02   2.1 3.182 0.369 3.551  9321  -729   451  6623  2409  4943  2247 0.276   113 267.7 419.4  1.70  1.00 200.2  1.99 134.6  32.2  1.00  0.94  0.96  0.00  0.00   0.0  0.14  0.09  0.00
 2020   1   198   197  22.8 0.684 127.7 0.849  0.02   1.8 3.146 0.364 3.510  9313  -727   450  6622  2381  4968  2242 0.276   112 276.0 423.1  1.70  1.00 200.2  2.00 134.7  34.2  1.00  0.95  0.97  0.00  0.00   0.0  0.15  0.10  0.00
 2020   2   199   198  21.2 0.684 127.7 0.846  0.02   1.4 3.114 0.361 3.474  9306  -726   448  6620  2357  4989  2238 0.276   112 283.3 426.8  1.69  1.00 200.2  2.00 134.2  37.3  1.00  0.97  0.98  0.00  0.00   0.0  0.25  0.23  0.00
 2020   3   200   199  21.7 0.684 127.7 0.842  0.01   0.7 3.079 0.357 3.436  9298  -725   447  6618  2331  5012  2233 0.275   112 291.1 430.3  1.69  1.00 200.2  2.00 133.5  35.8  1.00  0.98  0.99  0.00  0.00   0.0  0.22  0.19  0.00
 2020   4   201   200  22.4 0.684 127.7 0.839  0.00   0.1 3.040 0.352 3.392  9288  -723   446  6613  2301  5035  2228 0.275   112 299.9 433.9  1.69  1.00 200.2  2.00 133.4  39.0  1.00  1.00  1.00  0.00  0.00   0.0  0.18  0.14  0.00
 2020   5   202   201  23.4 0.684 127.7 0.834  0.00   0.0 2.991 0.346 3.338  9276  -721   445  6604  2264  5061  2227 0.275   111 311.1 437.4  1.69  1.00 200.2  2.00 133.4  42.1  1.00  1.00  1.00  0.00  0.00   0.0  0.11  0.05  0.00
 2020   6   203   202  25.2 0.684 127.7 0.829  0.00   0.0 2.940 0.340 3.281  9264  -720   445  6594  2225  5088  2225 0.275   111 322.7 440.9  1.69  1.00 200.2  2.00 133.4  41.1  1.00  1.00  1.00  0.00  0.00   0.0  0.00  0.00  0.00
 2020   7   204   203  24.8 0.684 127.7 0.823  0.00   0.0 2.888 0.334 3.222  9251  -718   444  6583  2186  5115  2224 0.276   111 334.5 444.5  1.69  1.00 200.2  2.00 133.4  41.2  1.00  1.00  1.00  0.00  0.00   0.0  0.01  0.00  0.00
 2020   8   205   204  25.2 0.684 127.7 0.817  0.00   0.0 2.832 0.328 3.160  9237  -716   443  6569  2143  5142  2225 0.276   111 347.3 448.1  1.69  1.00 200.2  2.00 133.4  35.7  1.00  1.00  1.00  0.00  0.00   0.0  0.00  0.00  0.00
 2020   9   206   205  25.2 0.684 127.7 0.811  0.00   0.0 2.773 0.321 3.094  9223  -714   442  6553  2099  5169  2228 0.277   111 360.6 451.9  1.70  1.00 200.2  2.00 133.4  34.0  1.00  1.00  1.00  0.00  0.00   0.0  0.00  0.00  0.00
 2020  10   207   206  25.4 0.684 127.7 0.803  0.00   0.0 2.711 0.314 3.025  9208  -713   441  6534  2052  5195  2233 0.278   111 374.8 455.6  1.70  1.00 200.2  2.00 133.3  37.5  1.00  1.00  1.00  0.00  0.00   0.0  0.00  0.00  0.00
 2020  11   208   207  25.0 0.684 127.7 0.796  0.00   0.0 2.649 0.307 2.956  9193  -711   440  6515  2005  5221  2237 0.279   112 388.8 459.4  1.71  1.00 200.2  2.00 133.3  37.6  1.00  1.00  1.00  0.00  0.00   0.0  0.00  0.00  0.00
 2020  12   209   208  25.0 0.684 127.7 0.788  0.00   0.0 2.583 0.299 2.882  9177  -709   439  6493  1955  5248  2244 0.281   112 403.9 463.1  1.72  1.00 200.2  2.00 133.3  42.9  1.00  1.00  1.00  0.00  0.00   0.0  0.00  0.00  0.00
 2020  13   210   209  26.2 0.684 127.7 0.778  0.00   0.0 2.512 0.291 2.803  9160  -708   438  6468  1901  5274  2254 0.283   112 419.9 466.9  1.74  1.00 200.2  2.00 133.3  34.7  1.00  1.00  1.00  0.00  0.00   0.0  0.00  0.00  0.00
 2020  14   211   210  26.0 0.684 127.7 0.769  0.00   0.0 2.441 0.283 2.723  9143  -706   437  6441  1847  5300  2264 0.285   113 436.1 470.6  1.75  1.00 200.2  2.00 133.3  35.5  1.00  1.00  1.00  0.00  0.00   0.0  0.00  0.00  0.00
 2020  15   212   211  26.4 0.684 127.7 0.758  0.00   0.0 2.362 0.273 2.635  9124  -704   436  6409  1788  5326  2278 0.287   113 454.1 474.3  1.77  1.00 200.2  2.00 133.3  35.4  1.00  1.00  1.00  0.00  0.00   0.0  0.00  0.00  0.00
 2020  16   213   212  24.5 0.684 127.7 0.748  0.00   0.0 2.294 0.266 2.560  9108  -703   435  6386  1737  5352  2287 0.289   114 469.3 478.0  1.78  1.00 200.2  2.00 133.2  38.0  1.00  1.00  1.00  0.00  0.00   0.0  0.03  0.00  0.00
 2020  17   214   213  24.5 0.684 127.7 0.737  0.00   0.0 2.225 0.258 2.482  9091  -701   435  6360  1684  5377  2296 0.290   114 485.2 481.7  1.80  1.00 200.2  2.00 133.2  38.2  1.00  1.00  1.00  0.00  0.00   0.0  0.03  0.00  0.00
 2020  18   215   214  24.0 0.684 127.7 0.724  0.00   0.0 2.144 0.248 2.392  9072  -699   434  6326  1623  5403  2312 0.293   115 503.5 485.4  1.81  1.00 200.2  2.00 133.2  42.5  1.00  1.00  1.00  0.00  0.00   0.0  0.07  0.00  0.00
 2020  19   216   215  24.4 0.684 127.7 0.712  0.00   0.0 2.072 0.240 2.312  9055  -698   433  6299  1569  5428  2323 0.295   116 519.7 489.1  1.84  1.00 200.2  2.00 133.2  46.2  1.00  1.00  1.00  0.00  0.00   0.0  0.04  0.00  0.00
 2020  20   217   216  25.2 0.684 127.7 0.698  0.00   0.0 1.997 0.231 2.228  9036  -696   432  6269  1512  5453  2336 0.298   116 536.9 492.8  1.85  1.00 200.2  2.00 133.2  47.9  1.00  1.00  1.00  0.00  0.00   0.0  0.00  0.00  0.00
 2020  21   218   217  25.6 0.684 127.7 0.684  0.00   0.0 1.922 0.223 2.145  9018  -694   431  6239  1455  5478  2349 0.300   117 553.8 496.5  1.87  1.00 200.2  2.00 133.2  42.7  1.00  1.00  1.00  0.00  0.00   0.0  0.00  0.00  0.00
 2020  22   219   218  26.7 0.684 127.7 0.671  0.00   0.0 1.851 0.214 2.065  9001  -693   430  6212  1401  5503  2360 0.302   117 570.1 500.1  1.89  1.00 200.2  2.00 133.2  38.8  1.00  1.00  1.00  0.00  0.00   0.0  0.00  0.00  0.00
 2020  23   220   219  25.4 0.684 127.7 0.656  0.00   0.0 1.780 0.206 1.986  8984  -691   429  6184  1347  5528  2371 0.304   118 586.2 503.8  1.91  1.00 200.2  2.00 133.1  45.5  1.00  1.00  1.00  0.00  0.00   0.0  0.00  0.00  0.00
 2020  24   221   220  23.8 0.684 127.7 0.644  0.00   0.0 1.721 0.199 1.920  8970  -690   428  6166  1303  5553  2376 0.305   119 599.5 507.4  1.92  1.00 200.2  2.00 133.1  39.5  1.00  1.00  1.00  0.00  0.00   0.0  0.08  0.02  0.00
 2020  25   222   221  23.2 0.684 127.7 0.632  0.00   0.0 1.667 0.193 1.860  8956  -688   426  6149  1261  5575  2381 0.306   119 611.9 511.0  1.93  1.00 200.2  2.00 133.1  42.6  1.00  1.00  1.00  0.00  0.00   0.0  0.12  0.07  0.00
 2020  26   223   222  23.6 0.684 127.7 0.619  0.00   0.0 1.608 0.186 1.794  8942  -687   425  6130  1217  5599  2387 0.308   119 625.2 514.7  1.94  1.00 200.2  2.00 133.1  43.9  1.00  1.00  1.00  0.00  0.00   0.0  0.09  0.03  0.00
 2020  27   224   223  24.0 0.684 127.7 0.607  0.00   0.0 1.558 0.180 1.738  8929  -685   424  6118  1179  5624  2387 0.308   119 636.6 518.3  1.95  1.00 200.2  2.00 133.1  45.9  1.00  1.00  1.00  0.00  0.00   0.0  0.06  0.00  0.00
 2020  28   225   224  24.5 0.684 127.7 0.594  0.00   0.0 1.503 0.174 1.677  8916  -683   423  6102  1138  5648  2390 0.309   119 649.0 521.9  1.96  1.00 200.2  2.00 133.1  47.8  1.00  1.00  1.00  0.00  0.00   0.0  0.04  0.00  0.00
 2020  29   226   225  25.3 0.684 127.7 0.579  0.00   0.0 1.443 0.167 1.610  8901  -682   422  6082  1092  5672  2397 0.311   120 662.7 525.5  1.97  1.00 200.2  2.00 133.0  56.1  1.00  1.00  1.00  0.00  0.00   0.0  0.00  0.00  0.00
 2020  30   227   226  25.3 0.684 127.7 0.565  0.00   0.0 1.387 0.161 1.548  8887  -680   421  6066  1050  5696  2401 0.312   120 675.4 529.1  1.98  1.00 200.2  2.00 133.0  46.6  1.00  1.00  1.00  0.00  0.00   0.0  0.00  0.00  0.00
 2020  31   228   227  25.2 0.684 127.7 0.553  0.00   0.0 1.342 0.155 1.497  8876  -679   420  6057  1016  5720  2399 0.312   120 685.6 532.6  1.98  1.00 200.2  2.00 133.0  48.9  1.00  1.00  1.00  0.00  0.00   0.0  0.00  0.00  0.00
 2020  32   229   228  25.0 0.684 127.7 0.539  0.00   0.0 1.292 0.150 1.441  8864  -677   419  6044   978  5744  2400 0.313   120 697.0 536.2  1.98  1.00 200.2  2.00 133.0  50.0  1.00  1.00  1.00  0.00  0.00   0.0  0.00  0.00  0.00
 2020  33   230   229  25.6 0.684 127.7 0.526  0.00   0.0 1.245 0.144 1.389  8852  -676   418  6034   942  5767  2400 0.313   120 707.6 539.8  1.99  1.00 200.2  2.00 133.0  52.8  1.00  1.00  1.00  0.00  0.00   0.0  0.00  0.00  0.00
 2020  34   231   230  25.1 0.684 127.7 0.512  0.00   0.0 1.197 0.139 1.336  8840  -674   417  6023   906  5791  2400 0.314   120 718.4 543.3  1.99  1.00 200.2  2.00 133.0  56.1  1.00  1.00  1.00  0.00  0.00   0.0  0.00  0.00  0.00
 2020  35   232   231  24.5 0.684 127.7 0.498  0.00   0.0 1.150 0.133 1.283  8828  -673   416  6012   871  5814  2400 0.314   120 729.2 546.9  2.00  1.00 200.2  2.00 133.0  58.8  1.00  1.00  1.00  0.00  0.00   0.0  0.03  0.00  0.00
 2020  36   233   232  25.0 0.684 127.7 0.485  0.00   0.0 1.106 0.128 1.234  8817  -671   415  6004   837  5838  2399 0.314   120 739.2 550.4  2.00  1.00 200.2  2.00 132.9  58.0  1.00  1.00  1.00  0.00  0.00   0.0  0.00  0.00  0.00
 2020  37   234   233  25.2 0.684 127.7 0.470  0.00   0.0 1.059 0.123 1.182  8806  -669   414  5993   802  5861  2399 0.315   120 749.9 553.9  2.00  1.00 200.2  2.00 132.9  61.7  1.00  1.00  1.00  0.00  0.00   0.0  0.00  0.00  0.00
 2020  38   235   234  26.7 0.684 127.7 0.456  0.00   0.0 1.014 0.117 1.131  8794  -668   413  5983   768  5884  2398 0.315   120 760.1 557.5  2.00  1.00 200.2  2.00 132.9  55.4  1.00  1.00  1.00  0.00  0.00   0.0  0.00  0.00  0.00
 2020  39   236   235  27.8 0.684 127.7 0.439  0.00   0.0 0.963 0.111 1.074  8782  -666   412  5969   729  5907  2401 0.316   120 771.7 561.0  2.01  1.00 200.2  2.00 132.9  53.3  1.00  1.00  1.00  0.00  0.00   0.0  0.00  0.00  0.00
 2020  40   237   236  27.0 0.684 127.7 0.424  0.00   0.0 0.919 0.106 1.026  8771  -665   411  5961   696  5930  2399 0.316   120 781.6 564.5  2.01  1.00 200.2  2.00 132.9  60.6  1.00  1.00  1.00  0.00  0.00   0.0  0.00  0.00  0.00
 2020  41   238   237  27.3 0.684 127.7 0.410  0.00   0.0 0.880 0.102 0.982  8761  -663   410  5955   666  5953  2396 0.316   120 790.5 568.0  2.01  1.00 200.2  2.00 132.9  76.5  1.00  1.00  1.00  0.00  0.00   0.0  0.00  0.00  0.00
 2020  42   239   238  27.4 0.684 127.7 0.394  0.00   0.0 0.834 0.097 0.931  8749  -662   409  5945   632  5975  2396 0.317   120 800.9 571.4  2.02  1.00 200.2  2.00 132.8  70.7  1.00  1.00  1.00  0.00  0.00   0.0  0.00  0.00  0.00
 2020  43   240   239  26.0 0.684 127.7 0.382  0.00   0.0 0.803 0.093 0.896  8741  -660   407  5945   608  5998  2388 0.316   120 807.9 574.9  2.02  1.00 200.2  2.00 132.8  86.3  1.00  1.00  1.00  0.00  0.00   0.0  0.00  0.00  0.00
 2020  44   241   240  26.4 0.684 127.7 0.367  0.00   0.0 0.763 0.088 0.851  8731  -659   406  5939   578  6020  2386 0.316   119 817.1 578.4  2.01  1.00 200.2  2.00 132.8  82.9  1.00  1.00  1.00  0.00  0.00   0.0  0.00  0.00  0.00
 2020  45   242   241  26.7 0.684 127.7 0.354  0.00   0.0 0.728 0.084 0.813  8722  -658   405  5936   551  6043  2380 0.316   119 824.9 581.8  2.01  1.00 200.2  2.00 132.8  81.6  1.00  1.00  1.00  0.00  0.00   0.0  0.00  0.00  0.00
 2020  46   243   242  27.0 0.684 127.7 0.340  0.00   0.0 0.692 0.080 0.772  8713  -656   404  5932   524  6065  2376 0.316   119 833.2 585.3  2.01  1.00 200.2  2.00 132.8  68.9  1.00  1.00  1.00  0.00  0.00   0.0  0.00  0.00  0.00
 2020  47   244   243  27.3 0.684 127.7 0.327  0.00   0.0 0.659 0.076 0.736  8704  -655   403  5931   499  6087  2370 0.315   119 840.6 588.7  2.00  1.00 200.2  2.00 132.8  70.6  1.00  1.00  1.00  0.00  0.00   0.0  0.00  0.00  0.00
 2020  48   245   244  27.8 0.684 127.7 0.313  0.00   0.0 0.626 0.072 0.699  8696  -653   402  5930   474  6109  2364 0.315   118 848.2 592.1  2.00  1.00 200.2  2.00 132.8  76.7  1.00  1.00  1.00  0.00  0.00   0.0  0.00  0.00  0.00
 2020  49   246   245  27.2 0.684 127.7 0.300  0.00   0.0 0.594 0.069 0.662  8687  -652   401  5928   449  6131  2358 0.314   118 855.6 595.6  1.99  1.00 200.2  2.00 132.7  97.8  1.00  1.00  1.00  0.00  0.00   0.0  0.00  0.00  0.00
 2020  50   247   246  26.6 0.684 127.7 0.287  0.00   0.0 0.563 0.065 0.628  8679  -650   400  5928   426  6153  2351 0.314   118 862.6 599.0  1.99  1.00 200.2  2.00 132.7  99.9  1.00  1.00  1.00  0.00  0.00   0.0  0.00  0.00  0.00
 2020  51   248   247  28.2 0.684 127.7 0.271  0.00   0.0 0.527 0.061 0.587  8670  -649   399  5924   399  6174  2347 0.314   118 870.8 602.4  1.98  1.00 200.2  2.00 132.7  90.0  1.00  1.00  1.00  0.00  0.00   0.0  0.00  0.00  0.00
 2020  52   249   248  29.5 0.684 127.7 0.256  0.00   0.0 0.493 0.057 0.550  8661  -647   398  5922   373  6196  2342 0.313   117 878.3 605.7  1.98  1.00 200.2  2.00 132.7  94.2  1.00  1.00  1.00  0.00  0.00   0.0  0.00  0.00  0.00
 2020  53   250   249  29.7 0.684 127.7 0.242  0.00   0.0 0.462 0.053 0.515  8653  -646   397  5921   349  6217  2335 0.313   117 885.5 609.1  1.98  1.00 200.2  2.00 132.7  88.3  1.00  1.00  1.00  0.00  0.00   0.0  0.00  0.00  0.00
 2020  54   251   250  29.6 0.684 127.7 0.227  0.00   0.0 0.429 0.050 0.479  8644  -645   396  5919   325  6239  2330 0.312   117 892.9 612.5  1.97  1.00 200.2  2.00 132.7  90.9  1.00  1.00  1.00  0.00  0.00   0.0  0.00  0.00  0.00
 2020  55   252   251  29.0 0.684 127.7 0.213  0.00   0.0 0.399 0.046 0.445  8636  -643   395  5919   302  6260  2323 0.312   116 899.8 615.8  1.97  1.00 200.2  2.00 132.7  97.9  1.00  1.00  1.00  0.00  0.00   0.0  0.00  0.00  0.00
 2020  56   253   252  27.7 0.684 127.7 0.199  0.00   0.0 0.369 0.043 0.412  8629  -642   394  5919   279  6281  2316 0.311   116 906.5 619.0  1.96  1.00 200.2  2.00 132.6  99.9  1.00  1.00  1.00  0.00  0.00   0.0  0.00  0.00  0.00
 2020  57   254   253  27.0 0.684 127.7 0.187  0.00   0.0 0.345 0.040 0.384  8622  -640   392  5923   261  6302  2307 0.310   116 912.1 622.4  1.96  1.00 200.2  2.00 132.6  99.9  1.00  1.00  1.00  0.00  0.00   0.0  0.00  0.00  0.00
 2020  58   255   254  28.8 0.684 127.7 0.174  0.00   0.0 0.319 0.037 0.356  8615  -639   391  5926   242  6323  2298 0.309   115 917.8 625.7  1.95  1.00 200.2  2.00 132.6  99.9  1.00  1.00  1.00  0.00  0.00   0.0  0.00  0.00  0.00
 2020  59   256   255  28.8 0.684 127.7 0.162  0.00   0.0 0.295 0.034 0.329  8609  -638   390  5930   223  6344  2288 0.308   115 923.4 629.0  1.94  1.00 200.2  2.00 132.6  99.9  1.00  1.00  1.00  0.00  0.00   0.0  0.00  0.00  0.00
 2020  60   257   256  30.1 0.684 127.7 0.150  0.00   0.0 0.270 0.031 0.302  8602  -636   389  5934   205  6365  2279 0.307   114 928.9 632.4  1.93  1.00 200.2  2.00 132.6  99.9  1.00  1.00  1.00  0.00  0.00   0.0  0.00  0.00  0.00
 2020  61   258   257  29.7 0.684 127.7 0.138  0.00   0.0 0.248 0.029 0.276  8596  -635   388  5938   187  6386  2269 0.306   114 934.1 635.7  1.92  1.00 200.2  2.00 132.6  99.9  1.00  1.00  1.00  0.00  0.00   0.0  0.00  0.00  0.00
 2020  62   259   258  29.0 0.684 127.7 0.127  0.00   0.0 0.227 0.026 0.253  8590  -634   387  5945   172  6407  2258 0.305   113 938.8 639.0  1.91  1.00 200.2  2.00 132.5  99.9  1.00  1.00  1.00  0.00  0.00   0.0  0.00  0.00  0.00
 2020  63   260   259  29.5 0.684 127.7 0.119  0.00   0.0 0.211 0.024 0.235  8585  -632   386  5954   159  6427  2245 0.303   113 942.5 642.3  1.90  1.00 200.2  2.00 132.5  99.9  1.00  1.00  1.00  0.00  0.00   0.0  0.00  0.00  0.00
 2020  64   261   260  30.2 0.684 127.7 0.110  0.00   0.0 0.195 0.023 0.217  8580  -631   385  5964   148  6447  2231 0.302   112 946.1 645.5  1.88  1.00 200.2  2.00 132.5  99.9  1.00  1.00  1.00  0.00  0.00   0.0  0.00  0.00  0.00
 2020  65   262   261  30.2 0.684 127.7 0.104  0.00   0.0 0.182 0.021 0.204  8576  -629   384  5976   138  6468  2216 0.300   112 948.9 648.8  1.87  1.00 200.2  2.00 132.5  99.9  1.00  1.00  1.00  0.00  0.00   0.0  0.00  0.00  0.00
 2020  66   263   262  28.9 0.684 127.7 0.097  0.00   0.0 0.170 0.020 0.189  8572  -628   383  5988   128  6488  2201 0.298   111 951.8 652.1  1.85  1.00 200.2  2.00 132.5  99.9  1.00  1.00  1.00  0.00  0.00   0.0  0.00  0.00  0.00
 2020  67   264   263  30.6 0.684 127.7 0.088  0.00   0.0 0.154 0.018 0.172  8568  -627   381  5998   116  6508  2188 0.296   110 955.4 655.3  1.84  1.00 200.2  2.00 132.5  99.9  1.00  1.00  1.00  0.00  0.00   0.0  0.00  0.00  0.00
 2020  68   265   264  30.2 0.684 127.7 0.078  0.00   0.0 0.136 0.016 0.152  8563  -625   380  6006   103  6528  2176 0.295   109 959.4 658.6  1.82  1.00 200.2  2.00 132.5  99.9  1.00  1.00  1.00  0.00  0.00   0.0  0.00  0.00  0.00
 2020  69   266   265  31.8 0.684 127.7 0.068  0.00   0.0 0.118 0.014 0.131  8557  -624   379  6013    89  6548  2165 0.294   109 963.6 661.8  1.81  1.00 200.2  2.00 132.4  99.9  1.00  1.00  1.00  0.00  0.00   0.0  0.00  0.00  0.00
 2020  70   267   266  29.9 0.684 127.7 0.060  0.00   0.0 0.103 0.012 0.115  8553  -623   378  6024    78  6568  2151 0.292   108 966.9 665.0  1.80  1.00 200.2  2.00 132.4  99.9  1.00  1.00  1.00  0.00  0.00   0.0  0.00  0.00  0.00
 2020  71   268   267  29.6 0.684 127.7 0.054  0.00   0.0 .0923 0.011 0.103  8549  -622   377  6036    70  6588  2136 0.290   108 969.4 668.2  1.78  1.00 200.2  2.00 132.4  99.9  1.00  1.00  1.00  0.00  0.00   0.0  0.00  0.00  0.00
 2020  72   269   268  30.0 0.684 127.7 0.048  0.00   0.0 .0825 0.010 .0920  8546  -620   376  6050    62  6608  2120 0.288   107 971.6 671.4  1.77  1.00 200.2  2.00 132.4  99.9  1.00  1.00  1.00  0.00  0.00   0.0  0.00  0.00  0.00
 2020  73   270   269  28.6 0.684 127.7 0.044  0.00   0.0 .0754 0.009 .0842  8543  -619   375  6065    57  6627  2103 0.286   106 973.2 674.6  1.75  1.00 200.2  2.00 132.4  99.9  1.00  1.00  1.00  0.00  0.00   0.0  0.00  0.00  0.00
 2020  74   271   270  28.4 0.684 127.7 0.041  0.00   0.0 .0698 0.008 .0779  8541  -618   374  6082    53  6647  2085 0.283   105 974.5 677.8  1.73  1.00 200.2  2.00 132.4  99.9  1.00  1.00  1.00  0.00  0.00   0.0  0.00  0.00  0.00
 2020  75   272   271  28.5 0.684 127.7 0.036  0.00   0.0 .0610 0.007 .0681  8538  -616   373  6096    46  6666  2069 0.281   104 976.5 681.0  1.71  1.00 200.2  2.00 132.3  99.9  1.00  1.00  1.00  0.00  0.00   0.0  0.00  0.00  0.00
 2020  76   273   272  28.5 0.684 127.7 0.033  0.00   0.0 .0553 0.006 .0617  8535  -615   372  6112    42  6686  2051 0.279   103 977.8 684.2  1.69  1.00 200.2  2.00 132.3  99.9  1.00  1.00  1.00  0.00  0.00   0.0  0.00  0.00  0.00
 2020  77   274   273  30.0 0.684 127.7 0.029  0.00   0.0 .0491 0.006 .0548  8533  -614   370  6128    37  6705  2034 0.277   103 979.2 687.3  1.67  1.00 200.2  2.00 132.3  99.9  1.00  1.00  1.00  0.00  0.00   0.0  0.00  0.00  0.00
 2020  78   275   274  30.5 0.684 127.7 0.026  0.00   0.0 .0436 0.005 .0487  8531  -612   369  6145    33  6724  2017 0.275   102 980.4 690.5  1.66  1.00 200.2  2.00 132.3  99.9  1.00  1.00  1.00  0.00  0.00   0.0  0.00  0.00  0.00
 2020  79   276   275  30.8 0.684 127.7 0.022  0.00   0.0 .0376 0.004 .0420  8528  -611   368  6160    28  6743  1999 0.272   101 981.8 693.6  1.64  1.00 200.2  2.00 132.3  99.9  1.00  1.00  1.00  0.00  0.00   0.0  0.00  0.00  0.00
 2020  80   277   276  29.7 0.684 127.7 0.019  0.00   0.0 .0318 0.004 .0354  8526  -610   367  6176    24  6762  1982 0.270   100 983.1 696.7  1.62  1.00 200.2  2.00 132.3  99.9  1.00  1.00  1.00  0.00  0.00   0.0  0.00  0.00  0.00
 2020  81   278   277  29.5 0.684 127.7 0.018  0.00   0.0 .0303 0.004 .0339  8524  -609   366  6195    23  6781  1963 0.267    99 983.4 699.9  1.60  1.00 200.2  2.00 132.3  99.9  1.00  1.00  1.00  0.00  0.00   0.0  0.00  0.00  0.00
 2020  82   279   278  28.9 0.684 127.7 0.016  0.00   0.0 .0271 0.003 .0303  8522  -607   365  6213    21  6800  1944 0.265    98 984.2 703.0  1.58  1.00 200.2  2.00 132.2  99.9  1.00  1.00  1.00  0.00  0.00   0.0  0.00  0.00  0.00
 2020  83   280   279  28.4 0.684 127.7 0.013  0.00   0.0 .0224 0.003 .0250  8520  -606   364  6230    17  6819  1927 0.263    97 985.2 706.1  1.56  1.00 200.2  2.00 132.2  99.9  1.00  1.00  1.00  0.00  0.00   0.0  0.00  0.00  0.00
 2020  84   281   280  26.8 0.684 127.7 0.011  0.00   0.0 .0182 0.002 .0203  8518  -605   363  6246    14  6837  1909 0.260    96 986.2 709.2  1.54  1.00 200.2  2.00 139.4  99.9  1.00  1.00  1.00  0.00  0.00   0.0  0.00  0.00  0.00
 2020  85   282   281  26.8 0.685 127.8 0.009  0.23   0.3 .0149 0.002 .0167  8517  -604   362  6264    11  6856  1891 0.258    95 986.9 712.2  1.52  1.00 200.2  2.00 140.3  99.9  1.00  0.77  0.85  0.00  0.00   0.0  0.00  0.00  0.00
 2020  86   283   282  27.8 0.686 128.0 0.009  0.27   0.2 .0149 0.002 .0167  8516  -602   360  6283    11  6874  1872 0.255    95 986.9 715.3  1.51  1.00 200.2  2.00 137.3  99.9  1.00  0.66  0.77  0.00  0.00   0.0  0.00  0.00  0.00
 2020  87   284   283  29.5 0.687 128.2 0.009  0.12   0.1 .0149 0.002 .0167  8515  -601   359  6303    11  6893  1852 0.253    94 986.9 718.4  1.48  1.00 200.2  2.00 132.5  99.9  1.00  0.61  0.74  0.00  0.00   0.0  0.00  0.00  0.00
 2020  88   285   284  29.8 0.688 128.4 0.009  0.13   0.1 .0149 0.002 .0167  8514  -600   358  6323    11  6911  1833 0.250    93 986.9 721.4  1.46  1.00 200.2  2.00 131.8  99.9  1.00  0.67  0.78  0.00  0.00   0.0  0.00  0.00  0.00
 2020  89   286   285  28.6 0.688 128.5 0.007  0.23   0.2 .0119 0.002 .0136  8512  -599   357  6341    11  6930  1814 0.248    92 987.6 724.5  1.45  1.00 203.0  2.00 132.7  99.9  1.00  0.70  0.80  0.00  0.00   0.0  0.00  0.00  0.00
 2020  90   287   286  28.5 0.689 128.7 0.006  0.30   0.2 .0100 0.001 .0113  8511  -597   356  6359     9  6948  1795 0.245    91 988.6 727.5  1.43  1.00 205.8  2.00 132.5  99.9  1.00  0.65  0.76  0.00  0.00   0.0  0.00  0.00  0.00
 2020  91   288   287  27.5 0.690 128.8 0.005  0.39   0.2 .0082 0.001 .0094  8509  -596   356  6377     8  6966  1776 0.243    90 989.5 730.6  1.41  1.00 207.4  2.00 136.3  99.9  1.00  0.65  0.77  0.00  0.00   0.0  0.00  0.00  0.00
 2020  92   289   288  27.2 0.691 129.1 0.004  0.59   0.3 .0069 0.001 .0080  8508  -595   355  6396     7  6984  1757 0.240    89 990.3 733.6  1.39  1.00 208.7  2.00 133.0  99.9  1.00  0.50  0.67  0.00  0.00   0.0  0.00  0.00  0.00
 2020  93   290   289  28.8 0.693 129.3 0.006  0.43   0.2 .0093 0.001 .0106  8507  -594   354  6417     9  7002  1736 0.237    88 990.3 736.6  1.37  1.00 210.8  2.00 129.4  99.9  1.00  0.47  0.65  0.00  0.00   0.0  0.00  0.00  0.00
 2020  94   291   290  27.7 0.694 129.5 0.007  0.53   0.3 .0121 0.002 .0137  8506  -593   353  6438    10  7020  1716 0.234    87 990.3 739.6  1.35  1.00 211.3  2.00 129.8  99.9  1.00  0.53  0.69  0.00  0.00   0.0  0.00  0.00  0.00
 2020  95   292   291  28.3 0.695 129.8 0.009  0.44   0.4 .0144 0.002 .0163  8506  -591   352  6458    12  7038  1696 0.232    86 990.3 742.6  1.33  1.00 212.2  2.00 129.4  99.9  1.00  0.50  0.67  0.00  0.00   0.0  0.00  0.00  0.00
 2020  96   293   292  28.0 0.696 130.0 0.010  0.43   0.4 .0167 0.002 .0188  8505  -590   351  6479    14  7056  1675 0.229    85 990.3 745.6  1.31  1.00 212.6  2.00 128.7  99.9  1.00  0.52  0.68  0.00  0.00   0.0  0.00  0.00  0.00
 2020  97   294   293  28.2 0.697 130.2 0.011  0.44   0.5 .0190 0.003 .0216  8505  -589   350  6501    17  7073  1654 0.226    84 990.3 748.6  1.29  1.00 213.4  2.00 134.9  99.9  1.00  0.55  0.70  0.00  0.00   0.0  0.00  0.00  0.00
 2020  98   295   294  29.1 0.699 130.6 0.013  0.34   0.5 .0213 0.003 .0241  8505  -588   349  6521    18  7091  1634 0.223    83 990.3 751.5  1.27  1.00 214.1  2.00 136.9  99.9  1.00  0.29  0.53  0.00  0.00   0.0  0.00  0.00  0.00
 2020  99   296   295  27.3 0.701 130.9 0.015  0.84   1.2 .0258 0.003 .0288  8505  -587   348  6542    20  7109  1615 0.221    82 990.3 754.5  1.25  1.00 214.0  2.00 140.3  99.9  1.00  0.25  0.50  0.00  0.00   0.0  0.00  0.00  0.00
 2020 100   297   296  26.0 0.703 131.3 0.017  1.16   1.5 .0280 0.003 .0315  8506  -586   347  6563    23  7126  1595 0.218    81 990.3 757.5  1.23  1.00 213.0  2.00 145.9  99.9  1.00  0.09  0.39  0.00  0.00   0.0  0.00  0.00  0.00
 2020 101   298   297  25.5 0.706 131.7 0.018  1.25   1.6 .0303 0.004 .0340  8506  -584   347  6584    24  7144  1576 0.215    80 990.3 760.4  1.21  1.00 212.4  2.00 170.5  99.9  1.00  0.00  0.26  0.00  0.00   0.0  0.00  0.00  0.00
 2020 102   299   298  25.9 0.711 132.5 0.020  0.76   1.4 .0341 0.005 .0387  8507  -583   346  6608    30  7161  1554 0.212    79 990.3 763.3  1.19  1.00 211.2  2.00 172.0  99.9  1.00  0.00  0.00  0.00  0.00   0.0  0.00  0.00  0.00
 2020 103   300   299  25.8 0.715 133.3 0.023  0.76   1.8 .0386 0.005 .0438  8509  -582   346  6631    34  7179  1533 0.209    78 990.3 766.1  1.17  1.00 210.4  2.00 166.2  99.9  1.00  0.00  0.00  0.00  0.00   0.0  0.00  0.00  0.00
 2020 104   301   300  27.7 0.720 134.3 0.028  0.56   1.5 .0473 0.006 .0536  8511  -581   345  6656    41  7196  1509 0.206    77 990.3 768.9  1.15  1.00 211.1  2.00 161.3  99.9  1.00  0.00  0.00  0.00  0.00   0.0  0.00  0.00  0.00
 2020 105   302   301  28.0 0.723 135.4 0.034  0.65   2.2 .0575 0.008 .0652  8513  -580   345  6684    50  7213  1484 0.203    75 990.3 771.8  1.13  1.00 211.9  2.00 159.5  99.9  1.00  0.00  0.00  0.00  0.00   0.0  0.00  0.00  0.00
 2020 106   303   302  28.4 0.727 136.5 0.041  0.68   2.9 .0700 0.009 .0795  8516  -579   345  6714    62  7231  1457 0.199    74 990.3 774.7  1.11  1.00 213.1  2.00 160.4  99.9  1.00  0.00  0.00  0.00  0.00   0.0  0.00  0.00  0.00
 2020 107   304   303  29.7 0.731 137.2 0.051  0.49   2.5 .0871 0.012 .0987  8519  -577   346  6746    76  7248  1427 0.195    73 990.3 777.7  1.08  1.00 215.1  2.00 154.5  99.9  1.00  0.00  0.00  0.00  0.00   0.0  0.00  0.00  0.00
 2020 108   305   304  28.8 0.734 138.0 0.062  0.60   3.4 0.107 0.014 0.121  8523  -576   346  6778    89  7265  1399 0.191    71 990.3 780.6  1.05  1.00 215.8  2.00 149.5  99.9  1.00  0.00  0.00  0.00  0.00   0.0  0.00  0.00  0.00
 2020 109   306   305  29.1 0.738 138.7 0.073  0.75   5.2 0.127 0.016 0.143  8529  -575   346  6812   105  7282  1370 0.187    70 990.3 783.6  1.03  1.00 216.7  2.00 148.3  99.9  1.00  0.00  0.00  0.00  0.00   0.0  0.00  0.00  0.00
 2020 110   307   306  27.6 0.741 139.3 0.085  0.96   7.6 0.148 0.018 0.166  8537  -574   346  6843   118  7299  1347 0.183    69 990.3 786.5  1.00  1.00 216.4  2.00 147.1  99.9  1.00  0.00  0.00  0.00  0.00   0.0  0.00  0.00  0.00
 2020 111   308   307  28.1 0.745 140.0 0.096  0.72   6.3 0.168 0.020 0.188  8544  -573   346  6872   128  7316  1326 0.180    67 990.3 789.4  0.98  1.00 216.4  2.00 145.9  99.9  1.00  0.00  0.00  0.00  0.00   0.0  0.00  0.00  0.00
 2020 112   309   308  27.5 0.749 140.6 0.104  0.83   7.8 0.183 0.021 0.204  8552  -572   346  6900   138  7334  1305 0.177    66 990.3 792.4  0.96  1.00 216.2  2.00 144.9  99.9  1.00  0.00  0.00  0.00  0.00   0.0  0.00  0.00  0.00
 2020 113   310   309  27.2 0.753 141.2 0.111  1.09  13.0 0.196 0.022 0.218  8565  -571   346  6925   145  7350  1295 0.175    65 990.3 795.3  0.94  1.00 216.0  2.00 144.1  99.9  1.00  0.00  0.00  0.00  0.00   0.0  0.00  0.00  0.00
 2020 114   311   310  28.0 0.757 141.9 0.117  0.84   8.6 0.207 0.023 0.230  8572  -570   345  6948   151  7367  1279 0.173    65 990.3 798.3  0.93  1.00 216.0  2.00 143.5  99.9  1.00  0.00  0.02  0.00  0.00   0.0  0.00  0.00  0.00
 2020 115   312   311  27.2 0.760 142.5 0.121  1.08  12.9 0.215 0.024 0.239  8585  -569   345  6975   159  7384  1266 0.171    64 990.3 801.2  0.92  1.00 215.8  2.00 143.2  99.9  1.00  0.00  0.03  0.00  0.00   0.0  0.00  0.00  0.00
 2020 116   313   312  27.6 0.764 143.1 0.126  1.01  12.3 0.225 0.025 0.250  8597  -567   344  6997   163  7401  1256 0.169    63 990.3 804.1  0.90  1.00 215.8  2.00 149.8  99.9  1.00  0.00  0.03  0.00  0.00   0.0  0.00  0.00  0.00
 2020 117   314   313  26.7 0.768 143.6 0.130  1.24  16.7 0.233 0.026 0.259  8614  -566   344  7021   169  7418  1250 0.168    63 990.3 807.0  0.89  1.00 215.6  2.00 151.5  99.9  1.00  0.00  0.00  0.00  0.00   0.0  0.00  0.00  0.00
 2020 118   315   314  26.5 0.772 144.2 0.135  1.26  18.3 0.241 0.027 0.268  8633  -565   343  7046   177  7435  1243 0.167    62 990.3 809.9  0.89  1.00 215.3  2.00 151.9  99.9  1.00  0.00  0.00  0.00  0.00   0.0  0.00  0.00  0.00
 2020 119   316   315  27.7 0.776 144.8 0.140  0.86  13.8 0.251 0.028 0.279  8647  -564   343  7070   183  7451  1234 0.165    62 990.3 812.8  0.88  1.00 215.2  2.00 149.6  99.9  1.00  0.00  0.00  0.00  0.00   0.0  0.00  0.00  0.00
 2020 120   317   316  26.7 0.780 145.4 0.144  1.21  17.6 0.259 0.029 0.288  8663  -563   342  7094   189  7468  1227 0.164    62 990.3 815.6  0.87  1.00 215.0  2.00 151.7  99.9  1.00  0.00  0.00  0.00  0.00   0.0  0.00  0.00  0.00
 2020 121   318   317  26.4 0.784 146.0 0.148  1.30  18.2 0.267 0.030 0.297  8681  -562   342  7117   195  7484  1221 0.163    61 990.3 818.4  0.86  1.00 214.8  2.00 153.0  99.9  1.00  0.00  0.00  0.00  0.00   0.0  0.00  0.00  0.00
 2020 122   319   318  26.5 0.788 146.5 0.153  1.28  19.2 0.276 0.031 0.307  8700  -561   342  7142   202  7501  1217 0.162    61 990.3 821.1  0.86  1.00 214.6  2.00 151.7  99.9  1.00  0.00  0.00  0.00  0.00   0.0  0.00  0.00  0.00
 2020 123   320   319  27.5 0.793 147.1 0.157  0.95  17.7 0.284 0.032 0.316  8720  -560   341  7164   206  7517  1215 0.161    61 990.3 823.9  0.85  1.00 214.6  2.00 149.2  99.9  1.00  0.00  0.00  0.00  0.00   0.0  0.00  0.00  0.00
 2020 124   321   320  26.5 0.797 147.7 0.161  1.35  23.0 0.292 0.032 0.324  8742  -559   341  7187   212  7534  1214 0.161    61 990.3 826.6  0.85  1.00 214.4  2.00 150.5  99.9  1.00  0.00  0.00  0.00  0.00   0.0  0.00  0.00  0.00
 2020 125   322   321  26.5 0.801 148.2 0.165  1.20  17.1 0.300 0.033 0.333  8757  -558   340  7210   218  7550  1206 0.159    61 990.3 829.3  0.84  1.00 214.3  2.00 150.7  99.9  1.00  0.00  0.00  0.00  0.00   0.0  0.00  0.00  0.00
 2020 126   323   322  28.0 0.805 148.9 0.168  0.72  14.5 0.307 0.034 0.341  8774  -557   340  7233   223  7566  1202 0.158    60 990.3 832.1  0.83  1.00 214.3  2.00 146.8  99.9  1.00  0.00  0.00  0.00  0.00   0.0  0.00  0.00  0.00
 2020 127   324   323  28.4 0.809 149.5 0.172  0.61  11.5 0.315 0.035 0.351  8785  -556   339  7256   229  7583  1189 0.156    60 990.3 835.0  0.83  1.00 214.4  2.00 141.8  99.9  1.00  0.00  0.00  0.00  0.00   0.0  0.00  0.00  0.00
 2020 128   325   324  28.0 0.812 150.1 0.176  0.91  15.4 0.323 0.036 0.359  8799  -554   338  7277   233  7599  1183 0.155    59 990.3 837.9  0.82  1.00 214.4  2.00 138.6  99.9  1.00  0.00  0.00  0.00  0.00   0.0  0.00  0.00  0.00
 2020 129   326   325  28.2 0.816 150.7 0.180  0.92  15.7 0.330 0.036 0.366  8814  -553   338  7300   238  7615  1176 0.154    59 990.3 840.8  0.81  1.00 214.5  2.00 135.4  99.9  1.00  0.00  0.00  0.00  0.00   0.0  0.00  0.00  0.00
 2020 130   327   326  27.4 0.820 151.3 0.183  1.01  15.2 0.337 0.037 0.375  8828  -552   337  7323   244  7631  1168 0.153    59 990.3 843.6  0.80  1.00 214.5  2.00 141.5  99.9  1.00  0.00  0.00  0.00  0.00   0.0  0.00  0.00  0.00
 2020 131   328   327  26.8 0.824 151.8 0.187  1.17  20.0 0.345 0.038 0.383  8848  -551   337  7345   249  7647  1166 0.152    58 990.3 846.5  0.79  1.00 214.4  2.00 139.6  99.9  1.00  0.00  0.00  0.00  0.00   0.0  0.00  0.00  0.00
 2020 132   329   328  26.4 0.828 152.4 0.191  1.22  24.7 0.353 0.039 0.392  8874  -550   336  7368   255  7663  1170 0.152    58 990.3 849.3  0.79  1.00 214.2  2.00 137.3  99.9  1.00  0.00  0.00  0.00  0.00   0.0  0.00  0.00  0.00
 2020 133   330   329  27.0 0.832 152.9 0.194  0.82  16.4 0.360 0.040 0.400  8890  -549   335  7390   260  7679  1164 0.151    59 990.3 852.2  0.79  1.00 214.2  2.00 133.5  99.9  1.00  0.00  0.00  0.00  0.00   0.0  0.00  0.00  0.00
 2020 134   331   330  27.7 0.836 153.5 0.198  0.84  16.6 0.368 0.041 0.409  8906  -548   335  7413   266  7695  1158 0.150    58 990.3 854.9  0.79  1.00 214.2  2.00 129.6  99.9  1.00  0.00  0.00  0.00  0.00   0.0  0.00  0.00  0.00
 2020 135   332   331  27.8 0.840 154.1 0.202  0.74  17.0 0.375 0.041 0.416  8923  -547   334  7434   270  7711  1156 0.149    58 990.3 857.8  0.78  1.00 214.2  2.00 128.1  99.9  1.00  0.00  0.00  0.00  0.00   0.0  0.00  0.00  0.00
 2020 136   333   332  27.9 0.844 154.6 0.205  0.99  16.5 0.382 0.042 0.424  8937  -546   334  7455   275  7726  1148 0.148    58 990.3 860.6  0.78  1.00 214.2  2.00 129.1  99.9  1.00  0.00  0.00  0.00  0.00   0.0  0.00  0.00  0.00
 2020 137   334   333  27.7 0.848 155.2 0.208  1.01  23.2 0.389 0.043 0.432  8962  -545   333  7477   280  7742  1152 0.148    57 990.3 863.4  0.77  1.00 214.2  2.00 129.4  99.9  1.00  0.00  0.00  0.00  0.00   0.0  0.00  0.00  0.00
 2020 138   335   334  26.8 0.851 155.7 0.211  1.18  29.5 0.396 0.044 0.439  8992  -544   332  7499   285  7758  1161 0.149    58 990.3 866.3  0.77  1.00 214.1  2.00 132.1  99.9  1.00  0.00  0.00  0.00  0.00   0.0  0.00  0.00  0.00
 2020 139   336   335  26.3 0.855 156.3 0.215  1.18  24.6 0.403 0.045 0.448  9014  -543   332  7521   291  7773  1161 0.148    58 990.3 869.1  0.77  1.00 214.0  2.00 142.4  99.9  1.00  0.00  0.00  0.00  0.00   0.0  0.00  0.00  0.00
 2020 140   337   336  26.0 0.860 156.8 0.218  1.42  23.8 0.410 0.045 0.455  9034  -542   331  7541   295  7789  1162 0.148    58 990.3 871.8  0.77  1.00 213.9  2.00 159.1  99.9  1.00  0.00  0.00  0.00  0.00   0.0  0.00  0.00  0.00
 2020 141   338   337  25.9 0.864 157.2 0.221  1.17  23.5 0.416 0.046 0.462  9060  -541   331  7563   300  7804  1166 0.148    58 990.3 874.4  0.77  1.00 213.8  2.00 172.6  99.9  1.00  0.00  0.00  0.00  0.00   0.0  0.00  0.00  0.00
 2020 142   339   338  25.7 0.868 157.7 0.224  1.09  24.9 0.423 0.046 0.469  9086  -540   330  7583   304  7820  1173 0.148    58 990.3 877.0  0.77  1.00 213.6  2.00 176.7  99.9  1.00  0.00  0.00  0.00  0.00   0.0  0.00  0.00  0.00
 2020 143   340   339  26.1 0.873 158.2 0.227  1.04  24.2 0.428 0.047 0.476  9110  -539   330  7605   309  7835  1175 0.148    59 990.3 879.5  0.77  1.00 213.5  2.00 179.6  99.9  1.00  0.00  0.00  0.00  0.00   0.0  0.00  0.00  0.00
 2020 144   341   340  26.3 0.877 158.7 0.230  1.13  26.2 0.435 0.048 0.483  9136  -538   329  7625   313  7850  1182 0.149    59 990.3 882.1  0.77  1.00 213.5  2.00 175.3  99.9  1.00  0.00  0.00  0.00  0.00   0.0  0.00  0.00  0.00
 2020 145   342   341  26.5 0.881 159.2 0.232  1.15  14.1 0.441 0.049 0.489  9143  -537   329  7647   318  7866  1168 0.147    59 990.3 884.6  0.77  1.00 213.4  2.00 174.6  99.9  1.00  0.00  0.00  0.00  0.00   0.0  0.00  0.00  0.00
[...]
 2020 131   323   322  26.3 0.906 154.5 0.255  1.19  34.9 0.490 0.056 0.546 12735   784   359  8306   369  7154  4070 0.315   203  1085 815.7  2.44  1.00 204.4  2.00 255.4  99.9  1.00  0.00  0.00  0.00  0.00   0.0  0.00  0.00  0.00
 2020 132   324   323  25.8 0.910 154.9 0.256  1.33  32.4 0.494 0.057 0.551 12763   785   358  8326   371  7170  4079 0.315   203  1085 818.8  2.44  1.00 204.4  2.00 251.6  99.9  1.00  0.00  0.00  0.00  0.00   0.0  0.00  0.00  0.00
 2020 133   325   324  26.2 0.915 155.5 0.258  1.08  33.8 0.498 0.057 0.556 12800   786   357  8348   375  7187  4095 0.316   204  1086 821.8  2.44  1.00 204.4  2.00 246.5  99.9  1.00  0.00  0.00  0.00  0.00   0.0  0.00  0.00  0.00
 2020 134   326   325  27.4 0.919 156.0 0.261  0.90  28.4 0.505 0.058 0.562 12828   787   356  8369   378  7203  4103 0.315   205  1086 824.7  2.45  1.00 204.5  2.00 225.3  99.9  1.00  0.00  0.00  0.00  0.00   0.0  0.00  0.00  0.00
 2020 135   327   326  27.2 0.923 156.6 0.264  0.90  31.5 0.511 0.059 0.569 12860   788   355  8391   383  7220  4114 0.316   205  1086 827.8  2.45  1.00 204.6  2.00 218.6  99.9  1.00  0.00  0.00  0.00  0.00   0.0  0.00  0.00  0.00
 2020 136   328   327  26.2 0.927 157.1 0.267  1.33  34.3 0.517 0.059 0.576 12889   789   354  8412   387  7236  4122 0.315   206  1086 830.8  2.45  1.00 204.6  2.00 215.2  99.9  1.00  0.00  0.00  0.00  0.00   0.0  0.00  0.00  0.00
 2020 137   329   328  26.0 0.931 157.5 0.269  1.38  44.7 0.523 0.060 0.583 12938   790   354  8434   392  7252  4150 0.316   206  1086 833.8  2.44  1.00 204.6  2.00 224.8  99.9  1.00  0.00  0.00  0.00  0.00   0.0  0.00  0.00  0.00
 2020 138   330   329  25.9 0.935 158.0 0.272  1.31  42.2 0.528 0.061 0.589 12979   791   353  8456   396  7269  4170 0.317   207  1086 836.8  2.45  1.00 204.6  2.00 222.7  99.9  1.00  0.00  0.00  0.00  0.00   0.0  0.00  0.00  0.00
 2020 139   331   330  26.7 0.940 158.5 0.273  1.14  37.7 0.532 0.061 0.593 13016   792   352  8475   398  7285  4188 0.317   209  1087 839.7  2.46  1.00 204.7  2.00 221.0  99.9  1.00  0.00  0.00  0.00  0.00   0.0  0.00  0.00  0.00
 2020 140   332   331  26.2 0.944 159.0 0.275  1.33  30.7 0.536 0.061 0.597 13039   793   351  8495   401  7301  4193 0.317   209  1087 842.5  2.47  1.00 204.7  2.00 223.3  99.9  1.00  0.00  0.00  0.00  0.00   0.0  0.00  0.00  0.00
 2020 141   333   332  25.8 0.948 159.5 0.276  1.33  41.2 0.539 0.062 0.601 13085   794   351  8515   404  7317  4219 0.318   210  1088 845.3  2.46  1.00 204.7  2.00 225.9  99.9  1.00  0.00  0.00  0.00  0.00   0.0  0.00  0.00  0.00
 2020 142   334   333  25.4 0.952 160.0 0.278  1.19  39.5 0.543 0.062 0.605 13125   795   350  8535   406  7333  4240 0.319   211  1088 848.0  2.47  1.00 204.7  2.00 234.9  99.9  1.00  0.00  0.00  0.00  0.00   0.0  0.00  0.00  0.00
 2020 143   335   334  26.0 0.957 160.5 0.280  1.26  36.9 0.547 0.063 0.610 13158   796   350  8556   410  7349  4253 0.319   212  1089 850.8  2.48  1.00 204.7  2.00 283.9  99.9  1.00  0.00  0.00  0.00  0.00   0.0  0.00  0.00  0.00
 2020 144   336   335  25.3 0.961 160.9 0.282  1.33  43.0 0.553 0.063 0.616 13202   797   349  8576   414  7365  4278 0.320   213  1089 853.6  2.48  1.00 204.7  2.00 275.0  99.9  1.00  0.00  0.00  0.00  0.00   0.0  0.00  0.00  0.00
 2020 145   337   336  24.7 0.966 161.3 0.285  1.40  34.3 0.559 0.064 0.623 13231   798   348  8598   419  7381  4285 0.320   214  1089 856.2  2.49  1.00 204.6  2.00 283.2  99.9  1.00  0.00  0.00  0.00  0.00   0.0  0.02  0.00  0.00
 2020 146   338   337  25.0 0.970 161.8 0.287  1.44  44.0 0.565 0.065 0.629 13279   799   348  8618   422  7396  4313 0.320   214  1089 858.9  2.49  1.00 204.6  2.00 279.9  99.9  1.00  0.00  0.00  0.00  0.00   0.0  0.00  0.00  0.00
 2020 147   339   338  25.6 0.975 162.2 0.290  1.36  45.1 0.570 0.065 0.635 13325   800   347  8639   427  7412  4338 0.321   216  1089 861.5  2.50  1.00 204.6  2.00 270.7  99.9  1.00  0.00  0.00  0.00  0.00   0.0  0.00  0.00  0.00
 2020 148   340   339  25.3 0.979 162.7 0.292  1.39  33.2 0.576 0.066 0.642 13352   801   347  8659   430  7428  4345 0.321   217  1089 864.0  2.51  1.00 204.6  2.00 263.6  99.9  1.00  0.00  0.00  0.00  0.00   0.0  0.00  0.00  0.00
 2020 149   341   340  25.9 0.984 163.1 0.294  1.33  41.2 0.581 0.066 0.647 13397   802   346  8680   435  7443  4371 0.322   217  1089 866.5  2.50  1.00 204.6  2.00 252.3  99.9  1.00  0.00  0.00  0.00  0.00   0.0  0.00  0.00  0.00
 2020 150   342   341  26.7 0.988 163.6 0.296  1.13  34.3 0.585 0.067 0.652 13430   803   346  8699   437  7459  4386 0.322   219  1089 869.1  2.51  1.00 204.6  2.00 241.7  99.9  1.00  0.00  0.00  0.00  0.00   0.0  0.00  0.00  0.00
 2020 151   343   342  26.0     1 164.1 0.297  1.32  44.4 0.588 0.067 0.655 13475   804   345  8718   439  7474  4412 0.323   219  1089 871.8  2.52  1.00 204.7  2.00 232.3  99.9  1.00  0.00  0.00  0.00  0.00   0.0  0.00  0.00  0.00
 2020 152   344   343  26.0     1 164.6 0.299  1.29  40.3 0.591 0.067 0.659 13513   805   344  8736   441  7490  4433 0.324   221  1090 874.5  2.53  1.00 204.7  2.00 225.0  99.9  1.00  0.00  0.00  0.00  0.00   0.0  0.00  0.00  0.00
 2020 153   345   344  25.6 1.001 165.0 0.300  1.37  43.3 0.593 0.068 0.661 13555   806   344  8755   443  7505  4457 0.324   222  1090 877.2  2.53  2.50 204.7  2.00 218.3  99.9  1.00  0.00  0.00  0.00  0.00   0.0  0.00  0.00  0.00
 2020 154   346   345  26.5 1.005 165.5 0.301  1.29  40.2 0.597 0.068 0.665 13594   807   343  8772   445  7521  4479 0.325   223  1091 879.9  2.54  2.50 204.7  2.00 213.8  99.9  1.00  0.00  0.00  0.00  0.00   0.0  0.00  0.00  0.00
 2020 155   347   346  26.5 1.008 166.0 0.302  1.23  43.3 0.600 0.068 0.668 13639   808   342  8791   447  7536  4506 0.326   224  1091 882.6  2.55  2.50 204.7  2.00 211.0  99.9  1.00  0.00  0.00  0.00  0.00   0.0  0.00  0.00  0.00
 2020 156   348   347  25.2 1.011 166.4 0.304  1.48  39.0 0.604 0.069 0.673 13672   809   342  8814   454  7551  4516 0.326   225  1091 885.3  2.56  2.50 204.7  2.00 209.8  99.9  1.00  0.00  0.00  0.00  0.00   0.0  0.00  0.00  0.00
 2020 157   349   348  25.9 1.015 166.8 0.306  1.29  37.3 0.610 0.070 0.680 13711   810   341  8835   458  7566  4535 0.326   226  1091 888.0  2.56  2.50 204.7  2.00 213.0  99.9  1.00  0.00  0.00  0.00  0.00   0.0  0.00  0.00  0.00
 2020 158   350   349  25.0 1.019 167.3 0.310  1.43  37.5 0.619 0.071 0.690 13746   811   341  8858   466  7581  4547 0.327   227  1091 890.6  2.56  2.50 204.6  2.00 217.2  99.9  1.00  0.00  0.00  0.00  0.00   0.0  0.00  0.00  0.00
 2020 159   351   350  26.5 1.022 167.7 0.314  1.15  44.7 0.627 0.072 0.699 13799   812   341  8880   472  7596  4579 0.328   227  1091 893.2  2.56  2.50 204.7  2.00 223.8  99.9  1.00  0.00  0.00  0.00  0.00   0.0  0.00  0.00  0.00
 2020 160   352   351  27.0 1.026 168.2 0.318  1.05  38.0 0.637 0.073 0.711 13836   813   340  8904   480  7611  4591 0.328   229  1091 895.9  2.57  2.50 204.8  2.00 227.0  99.9  1.00  0.00  0.00  0.00  0.00   0.0  0.00  0.00  0.00
 2020 161   353   352  24.4 1.029 168.6 0.322  1.51  41.1 0.647 0.075 0.722 13872   814   340  8928   487  7626  4604 0.328   230  1091 898.5  2.57  2.50 204.7  2.00 251.2  99.9  1.00  0.00  0.00  0.00  0.00   0.0  0.04  0.00  0.00
 2020 162   354   353  24.5 1.032 169.0 0.326  1.42  56.1 0.658 0.076 0.734 13937   815   340  8954   497  7641  4644 0.329   230  1091 901.1  2.57  2.50 204.6  2.00 248.0  99.9  1.00  0.00  0.00  0.00  0.00   0.0  0.03  0.00  0.00
 2020 163   355   354  24.8 1.036 169.4 0.332  1.37  52.3 0.671 0.078 0.749 13989   816   340  8982   510  7656  4667 0.329   232  1091 903.7  2.59  2.50 204.4  2.00 255.7  99.9  1.00  0.00  0.00  0.00  0.00   0.0  0.02  0.00  0.00
 2020 164   356   355  25.9 1.040 169.8 0.337  1.25  34.7 0.685 0.079 0.764 14016   817   340  9005   517  7671  4672 0.329   233  1091 906.2  2.59  2.50 204.5  2.00 260.6  99.9  1.00  0.00  0.00  0.00  0.00   0.0  0.00  0.00  0.00
 2020 165   357   356  24.2 1.043 170.2 0.342  1.45  58.2 0.697 0.080 0.778 14082   818   340  9029   526  7686  4713 0.330   234  1091 908.6  2.59  2.50 204.3  2.00 258.4  99.9  1.00  0.00  0.00  0.00  0.00   0.0  0.05  0.00  0.00
 2020 166   358   357  25.7 1.047 170.6 0.346  1.30  52.0 0.707 0.082 0.789 14134   819   340  9052   533  7700  4742 0.331   236  1091 911.1  2.60  2.50 204.3  2.00 255.0  99.9  1.00  0.00  0.00  0.00  0.00   0.0  0.00  0.00  0.00
 2020 167   359   358  25.6 1.050 171.1 0.350  1.32  50.5 0.718 0.083 0.801 14183   820   340  9075   540  7715  4769 0.332   237  1091 913.6  2.61  2.50 204.3  2.00 246.4  99.9  1.00  0.00  0.00  0.00  0.00   0.0  0.00  0.00  0.00
 2020 168   360   359  25.9 1.054 171.5 0.353  1.33  52.6 0.726 0.083 0.809 14236   821   339  9096   545  7730  4801 0.333   238  1092 916.2  2.62  2.50 204.4  2.00 237.7  99.9  1.00  0.00  0.00  0.00  0.00   0.0  0.00  0.00  0.00
 2020 169   361   360  25.3 1.057 171.9 0.356  1.49  51.2 0.732 0.084 0.817 14282   822   339  9116   550  7744  4827 0.334   240  1092 918.7  2.63  2.50 204.3  2.00 231.9  99.9  1.00  0.00  0.00  0.00  0.00   0.0  0.00  0.00  0.00
 2020 170   362   361  24.1 1.061 172.3 0.358  1.48  48.8 0.740 0.085 0.825 14330   823   339  9139   557  7759  4852 0.334   241  1093 921.2  2.64  2.50 204.2  2.00 228.4  99.9  1.00  0.00  0.00  0.00  0.00   0.0  0.06  0.00  0.00
 2020 171   363   362  24.3 1.065 172.6 0.361  1.41  53.2 0.746 0.086 0.833 14386   823   339  9159   563  7773  4887 0.336   243  1093 923.7  2.65  2.50 204.1  2.00 223.7  99.9  1.00  0.00  0.00  0.00  0.00   0.0  0.04  0.00  0.00
 2020 172   364   363  25.5 1.068 173.1 0.364  1.17  48.4 0.755 0.087 0.842 14436   824   339  9180   568  7788  4917 0.336   244  1094 926.1  2.66  2.50 204.1  2.00 217.1  99.9  1.00  0.00  0.00  0.00  0.00   0.0  0.00  0.00  0.00
 2020 173   365   364  25.4 1.072 173.5 0.367  1.27  50.1 0.763 0.088 0.851 14484   825   338  9201   574  7802  4945 0.337   246  1094 928.6  2.67  2.50 204.1  2.00 212.6  99.9  1.00  0.00  0.00  0.00  0.00   0.0  0.00  0.00  0.00
 2020 174   366   365  24.5 1.075 173.8 0.371  1.41  47.4 0.772 0.089 0.861 14528   826   338  9223   580  7816  4967 0.338   247  1094 931.0  2.68  2.50 204.1  2.00 209.3  99.9  1.00  0.00  0.00  0.00  0.00   0.0  0.03  0.00  0.00
 2020 175   367   366  24.9 1.079 174.2 0.374  1.30  59.7 0.781 0.090 0.872 14596   827   338  9246   589  7831  5011 0.339   248  1094 933.5  2.69  2.50 204.0  2.00 205.5  99.9  1.00  0.00  0.00  0.00  0.00   0.0  0.01  0.00  0.00
 2020 176   368   367  25.8 1.083 174.6 0.378  1.11  50.5 0.791 0.091 0.882 14646   828   338  9268   595  7845  5040 0.340   251  1094 936.1  2.70  2.50 204.0  2.00 202.8  99.9  1.00  0.00  0.00  0.00  0.00   0.0  0.00  0.00  0.00
 2020 177   369   368  25.5 1.086 175.1 0.382  1.34  56.6 0.802 0.093 0.894 14700   829   337  9293   605  7859  5070 0.341   252  1094 938.7  2.71  2.50 204.0  2.00 201.0  99.9  1.00  0.00  0.00  0.00  0.00   0.0  0.00  0.00  0.00
 2020 178   370   369  25.0 1.090 175.4 0.386  1.47  53.3 0.814 0.094 0.907 14749   830   337  9315   611  7873  5098 0.341   254  1094 941.2  2.72  2.50 204.0  2.00 200.4  99.9  1.00  0.00  0.00  0.00  0.00   0.0  0.00  0.00  0.00
 2020 179   371   370  24.3 1.093 175.8 0.390  1.45  62.7 0.823 0.094 0.917 14817   831   336  9334   616  7887  5146 0.343   255  1094 943.7  2.73  2.50 203.9  2.00 198.8  99.9  1.00  0.00  0.00  0.00  0.00   0.0  0.05  0.00  0.00
 2020 180   372   371  24.0 1.097 176.2 0.392  1.37  42.5 0.829 0.095 0.925 14850   832   336  9357   624  7902  5157 0.343   257  1094 946.2  2.75  2.50 203.8  2.00 199.2  99.9  1.00  0.00  0.00  0.00  0.00   0.0  0.07  0.00  0.00
 2020 181   373   372  24.3 1.101 176.5 0.395  1.37  42.5 0.838 0.097 0.935 14892   832   336  9379   631  7916  5178 0.344   258  1094 948.5  2.75  2.50 203.8  2.00 204.0  99.9  1.00  0.00  0.00  0.00  0.00   0.0  0.04  0.00  0.00
 2020 182   374   373  24.9 1.104 176.9 0.399  1.32  48.1 0.848 0.098 0.946 14944   833   336  9403   640  7929  5206 0.344   259  1094 950.8  2.75  2.50 203.7  2.00 201.4  99.9  1.00  0.00  0.00  0.00  0.00   0.0  0.01  0.00  0.00
 2020 183   375   374  25.0 1.108 177.3 0.403  1.30  58.1 0.860 0.099 0.959 15008   834   336  9426   648  7943  5246 0.345   260  1094 953.1  2.76  2.50 203.7  2.00 196.9  99.9  1.00  0.00  0.00  0.00  0.00   0.0  0.00  0.00  0.00
 2020 184   376   375  25.4 1.112 177.7 0.406  1.20  62.3 0.869 0.100 0.969 15074   835   336  9446   654  7957  5292 0.347   262  1094 955.5  2.78  2.50 203.7  2.00 191.7  89.6  1.00  0.00  0.00  0.00  0.00   0.0  0.00  0.00  0.00
 2020 185   377   376  25.4 1.115 178.1 0.410  1.41  52.0 0.879 0.101 0.980 15117   836   336  9468   661  7971  5314 0.347   265  1094 958.0  2.79  2.50 203.7  2.00 197.2  99.9  1.00  0.00  0.00  0.00  0.00   0.0  0.00  0.00  0.00
 2020 186   378   377  23.7 1.119 178.4 0.413  1.45  35.1 0.888 0.102 0.990 15143   837   335  9488   667  7985  5319 0.347   266  1094 960.4  2.80  2.50 203.6  2.00 200.2  99.9  1.00  0.00  0.00  0.00  0.00   0.0  0.09  0.02  0.00
 2020 187   379   378  23.7 1.122 178.7 0.416  1.40  61.3 0.896 0.103     1 15218   838   335  9509   673  7998  5374 0.349   266  1094 962.8  2.80  2.50 203.5  2.00 248.5  99.9  1.00  0.00  0.00  0.00  0.00   0.0  0.09  0.02  0.00
 2020 188   380   379  24.5 1.126 179.1 0.419  1.28  53.9 0.905 0.104 1.009 15271   839   335  9531   681  8012  5405 0.350   269  1094 965.2  2.82  2.50 203.5  2.00 279.2  99.9  1.00  0.00  0.00  0.00  0.00   0.0  0.03  0.00  0.00
 2020 189   381   380  24.2 1.130 179.4 0.422  1.44  56.3 0.913 0.105 1.018 15325   839   334  9552   687  8025  5438 0.351   270  1094 967.5  2.83  2.50 203.4  2.00 321.2  99.9  1.00  0.00  0.00  0.00  0.00   0.0  0.06  0.00  0.00
 2020 190   382   381  24.6 1.133 179.8 0.425  1.41  68.0 0.922 0.106 1.027 15399   840   334  9571   691  8039  5494 0.353   272  1094 969.7  2.84  2.50 203.4  2.00 330.4  99.9  1.00  0.00  0.00  0.00  0.00   0.0  0.03  0.00  0.00
 2020 191   383   382  24.7 1.137 180.2 0.427  1.45  61.4 0.928 0.107 1.035 15456   841   334  9592   699  8052  5530 0.354   275  1094 972.0  2.86  2.50 203.3  2.00 331.0  99.9  1.00  0.00  0.00  0.00  0.00   0.0  0.02  0.00  0.00
 2020 192   384   383  23.2 1.141 180.5 0.430  1.40  50.9 0.936 0.108 1.044 15502   842   333  9610   703  8065  5559 0.354   276  1094 974.3  2.88  2.50 203.3  2.00 308.7  99.9  1.00  0.00  0.00  0.00  0.00   0.0  0.12  0.07  0.00
 2020 193   385   384  24.1 1.144 180.8 0.432  1.30  59.4 0.943 0.109 1.051 15568   843   333  9630   709  8078  5604 0.356   278  1094 976.5  2.89  2.50 203.2  2.00 290.7  99.9  1.00  0.00  0.00  0.00  0.00   0.0  0.06  0.00  0.00
 2020 194   386   385  23.6 1.148 181.1 0.435  1.37  31.4 0.951 0.109 1.060 15584   844   333  9651   716  8091  5600 0.355   280  1094 978.7  2.90  2.50 203.1  2.00 283.3  99.9  1.00  0.00  0.00  0.00  0.00   0.0  0.09  0.03  0.00
 2020 195   387   386  24.0 1.152 181.5 0.437  1.36  58.4 0.957 0.110 1.067 15656   845   333  9670   721  8105  5653 0.357   280  1095 980.9  2.90  2.50 203.1  2.00 269.2  99.9  1.00  0.00  0.00  0.00  0.00   0.0  0.07  0.00  0.00
 2020 196   388   387  23.3 1.155 181.8 0.439  1.34  50.4 0.964 0.111 1.075 15702   845   333  9688   725  8117  5682 0.358   283  1095 983.0  2.92  2.50 203.0  2.00 265.8  99.9  1.00  0.00  0.00  0.00  0.00   0.0  0.11  0.06  0.00
 2020 197   389   388  23.5 1.159 182.1 0.441  1.31  42.7 0.970 0.112 1.081 15741   846   333  9707   730  8130  5702 0.358   284  1095 985.1  2.93  2.50 202.9  2.00 269.9  99.9  1.00  0.00  0.00  0.00  0.00   0.0  0.10  0.04  0.00
 2020 198   390   389  23.1 1.163 182.4 0.443  1.32  52.8 0.976 0.112 1.088 15798   847   332  9724   735  8142  5742 0.359   285  1096 987.2  2.93  2.50 202.8  2.00 274.7  99.9  1.00  0.00  0.00  0.00  0.00   0.0  0.13  0.08  0.00
 2020 199   391   390  22.5 1.166 182.7 0.445  1.30  51.7 0.981 0.113 1.094 15849   848   332  9738   737  8154  5779 0.361   287  1096 989.3  2.95  2.50 202.7  2.00 285.1  99.9  1.00  0.00  0.00  0.00  0.00   0.0  0.17  0.12  0.00
 2020 200   392   391  22.9 1.170 183.0 0.446  1.32  53.6 0.984 0.113 1.098 15902   848   332  9755   741  8166  5816 0.362   289  1097 991.4  2.96  2.50 202.7  2.00 284.0  99.9  1.00  0.00  0.00  0.00  0.00   0.0  0.14  0.09  0.00
 2020 201   393   392  23.4 1.174 183.3 0.448  1.29  55.1     1 0.114 1.105 15958   849   332  9775   747  8178  5852 0.363   291  1097 993.5  2.97  2.50 202.6  2.00 275.1  99.9  1.00  0.00  0.00  0.00  0.00   0.0  0.11  0.05  0.00
 2020 202   394   393  23.4 1.177 183.6 0.450  1.36  59.9     1 0.115 1.112 16019   850   331  9791   751  8190  5896 0.364   293  1097 995.5  2.99  2.50 202.5  2.00 278.2  99.9  1.00  0.00  0.00  0.00  0.00   0.0  0.11  0.05  0.00
 2020 203   395   394  23.1 1.181 183.9 0.452  1.31  62.9 1.004 0.116 1.119 16084   851   331  9810   756  8203  5944 0.365   295  1097 997.6  3.01  2.50 202.5  2.00 291.0  99.9  1.00  0.00  0.00  0.00  0.00   0.0  0.13  0.08  0.00
 2020 204   396   395  23.5 1.185 184.2 0.455  1.29  55.8 1.011 0.117 1.127 16137   852   331  9829   763  8215  5977 0.366   297  1097 999.7  3.02  2.50 202.4  2.00 294.3  99.9  1.00  0.00  0.00  0.00  0.00   0.0  0.10  0.05  0.00
 2020 205   397   396  23.1 1.188 184.5 0.457  1.39  66.4 1.017 0.117 1.134 16206   852   330  9846   766  8227  6030 0.368   299  1097  1002  3.04  2.50 202.3  2.00 324.0  99.9  1.00  0.00  0.00  0.00  0.00   0.0  0.13  0.08  0.00
 2020 206   398   397  22.8 1.192 184.8 0.459  1.35  49.8 1.023 0.118 1.141 16247   853   330  9863   771  8238  6055 0.369   301  1097  1004  3.06  2.50 202.2  2.00 323.2  99.9  1.00  0.00  0.00  0.00  0.00   0.0  0.15  0.10  0.00
 2020 207   399   398  24.0 1.195 185.1 0.461  1.33  57.9 1.030 0.119 1.149 16310   854   330  9883   778  8251  6097 0.370   303  1097  1006  3.06  2.50 202.2  2.00 304.9  99.9  1.00  0.00  0.00  0.00  0.00   0.0  0.07  0.00  0.00
 2020 208   400   399  24.2 1.199 185.5 0.463  1.35  60.2 1.037 0.120 1.157 16371   855   330  9903   784  8264  6138 0.371   305  1097  1008  3.08  2.50 202.2  2.00 294.8  99.9  1.00  0.00  0.00  0.00  0.00   0.0  0.05  0.00  0.00
 2020 209   401   400  23.6 1.203 185.8 0.466  1.44  40.8 1.046 0.121 1.167 16400   855   330  9922   790  8276  6149 0.371   307  1097  1010  3.09  2.50 202.1  2.00 311.8  99.9  1.00  0.00  0.00  0.00  0.00   0.0  0.09  0.03  0.00
 2020 210   402   401  24.2 1.206 186.1 0.469  1.36  73.8 1.053 0.122 1.175 16492   856   329  9942   796  8289  6221 0.373   307  1097  1012  3.09  2.50 202.1  2.00 290.3  99.9  1.00  0.00  0.00  0.00  0.00   0.0  0.06  0.00  0.00
 2020 211   403   402  24.0 1.210 186.4 0.471  1.37  69.7 1.061 0.122 1.184 16559   857   329  9959   800  8302  6271 0.375   311  1097  1015  3.12  2.50 202.0  2.00 273.2  99.9  1.00  0.00  0.00  0.00  0.00   0.0  0.07  0.00  0.00
 2020 212   404   403  23.6 1.214 186.7 0.473  1.43  49.3 1.066 0.123 1.189 16597   858   328  9976   804  8314  6293 0.375   314  1097  1017  3.14  2.50 202.0  2.00 260.8  99.9  1.00  0.00  0.00  0.00  0.00   0.0  0.09  0.03  0.00
 2020 213   405   404  22.8 1.217 187.0 0.474  1.36  61.5 1.072 0.124 1.195 16666   859   328  9992   808  8325  6346 0.377   315  1097  1019  3.15  2.50 201.9  2.00 261.1  99.9  1.00  0.00  0.00  0.00  0.00   0.0  0.14  0.10  0.00
 2020 214   406   405  23.6 1.221 187.3 0.476  1.35  54.2 1.077 0.124 1.201 16716   859   328 10010   813  8337  6378 0.378   317  1097  1021  3.17  2.50 201.9  2.00 250.0  99.9  1.00  0.00  0.00  0.00  0.00   0.0  0.09  0.03  0.00
 2020 215   407   406  24.0 1.225 187.6 0.477  1.41  63.2 1.081 0.125 1.206 16782   860   327 10027   817  8350  6428 0.379   319  1097  1023  3.18  2.50 201.9  2.00 242.3  99.9  1.00  0.00  0.00  0.00  0.00   0.0  0.07  0.00  0.00
 2020 216   408   407  22.7 1.228 187.9 0.480  1.34  19.2 1.089 0.126 1.214 16782   861   327 10043   821  8361  6412 0.378   321  1097  1025  3.20  2.50 201.8  2.00 244.5  99.9  1.00  0.00  0.00  0.00  0.00   0.0  0.16  0.11  0.00
