$GROWTH ASPECTS OUTPUT FILE

*DSSAT Cropping System Model Ver. 4.8.0.019 -develop  JAN 07, 2022 20:10:05

*RUN   1        : TMEB419                   CSYCA048 UYAB1901    5
 MODEL          : CSYCA048 - Cassava
 EXPERIMENT     : UYAB1901 CS UYT_GXE
 DATA PATH      :
 TREATMENT  5   : TMEB419                   CSYCA048
  
@YEAR DOY   DAS   DAP TMEAN  GSTD  L#SD PARID PARUD  AWAD  LAID  SAID  CAID  TWAD SDWAD  RWAD  CWAD  LWAD  SWAD  HWAD  HIAD RSWAD SNWLD SNWSD  RS%D  S#AD  SLAD  RDPD  SWXD WAVRD WUPRD  WFPD  WFGD  NFPD  NFGD NUPRD  TFPD  TFGD DYLFD            
 2019 169     0     0  28.9     0   0.0 0.000  0.00   0.0     0 0.000     0   450   450     0   450     0     0     0 0.000     0     0     0  0.00  0.00 -99.0  0.20  26.5  99.9  1.00  0.00  0.00  0.00  0.00   0.0  0.00  0.00  0.00
 2019 170     1     1  29.0     0   0.0 0.000  0.00   0.0     0 0.000     0   450   450     0   450     0     0     0 0.000     0     0     0  0.00  0.00 -99.0  0.20  31.1  99.9  1.00  0.00  0.00  0.00  0.00   0.0  0.00  0.00  0.00
 2019 171     2     2  26.7     0   0.0 0.000  0.00   0.0     0 0.000     0   450   450     0   450     0     0     0 0.000     0     0     0  0.00  0.00 -99.0  0.20  28.0  99.9  1.00  0.00  0.00  0.00  0.00   0.0  0.00  0.00  0.00
 2019 172     3     3  27.7     0   0.0 0.000  0.00   0.0     0 0.000     0   450   450     0   450     0     0     0 0.000     0     0     0  0.00  0.00 -99.0  0.20  25.2  99.9  1.00  0.00  0.00  0.00  0.00   0.0  0.00  0.00  0.00
 2019 173     4     4  25.8     0   0.0 0.000  0.00   0.0     0 0.000     0   450   450     0   450     0     0     0 0.000     0     0     0  0.00  0.00 -99.0  0.20  28.1  99.9  1.00  0.00  0.00  0.00  0.00   0.0  0.00  0.00  0.00
 2019 174     5     5  27.6     0   0.0 0.000  0.00   0.0     0 0.000     0   450   450     0   450     0     0     0 0.000     0     0     0  0.00  0.00 -99.0  0.20  25.9  99.9  1.00  0.00  0.00  0.00  0.00   0.0  0.00  0.00  0.00
 2019 175     6     6  24.4     0   0.0 0.000  0.00   0.0     0 0.000     0   450   450     0   450     0     0     0 0.000     0     0     0  0.00  0.00 -99.0  0.20  32.9  99.9  1.00  0.00  0.00  0.00  0.00   0.0  0.00  0.00  0.00
 2019 176     7     7  26.4     0   0.0 0.000  0.00   0.0     0 0.000     0   450   450     0   450     0     0     0 0.000     0     0     0  0.00  0.00 -99.0  0.20  27.4  99.9  1.00  0.00  0.00  0.00  0.00   0.0  0.00  0.00  0.00
 2019 177     8     8  25.0     0   0.0 0.000  0.00   0.0     0 0.000     0   443   443     0   443     0     0     0 0.000     0     0     0  0.00  1.00 -99.0  0.21  27.5  99.9  1.00  0.00  0.00  0.00  0.00   0.0  0.00  0.00  0.00
 2019 178     9     9  25.0 .0084   0.0 0.000  0.00   0.0     0 0.000     0   443   443     0   443     0     0     0 0.000     0     0     0  0.00  1.00 -99.0  0.22  27.8  99.9  1.00  0.00  0.00  0.00  0.00   0.0  0.00  0.00  0.00
 2019 179    10    10  26.4 .0168   1.3 0.000  0.00   0.0     0 0.000     0   443   443     0   443     0     0     0 0.000     0     0     0  0.00  1.00 -99.0  0.24  28.1  99.9  1.00  0.00  0.00  0.00  0.00   0.0  0.00  0.00  0.00
 2019 180    11    11  27.3 .0246   2.7 0.000  0.00   0.0     0 0.000     0   443   443     0   443     0     0     0 0.000     0     0     0  0.00  1.00 -99.0  0.25  28.5  99.9  1.00  0.00  0.00  0.00  0.00   0.0  0.00  0.00  0.00
 2019 181    12    12  27.4 .0319   4.1 0.000  0.00   0.0     0 0.000 .0004   443   439     1   442     3     0     1 0.001     0     0     0  0.00  1.00 223.2  0.26  36.2  99.9  1.00  0.00  0.00  0.00  0.00   0.0  0.00  0.00  0.00
 2019 182    13    13  25.8 .0392   5.4 0.003  0.00   0.0 .0045 0.001 .0055   444   434     1   441     7     1     1 0.001     0     0 .0044  0.01  1.00 218.6  0.27  38.5  99.9  1.00  0.00  0.00  0.00  0.00   0.0  0.00  0.00  0.00
 2019 183    14    14  26.5 .0472   6.7 0.007  2.34   0.6 .0104 0.002 .0124   446   425     2   441    15     2     2 0.003     0     0 .0143  0.03  1.00 218.5  0.29  36.6  99.9  1.00  0.00  0.00  0.00  0.00   0.0  0.00  0.00  0.00
 2019 184    15    15  26.8 .0549   8.0 0.014  2.29   1.3 .0224 0.004 .0260   449   413     4   441    25     3     4 0.004     0     0 .0333  0.05  1.00 219.3  0.30  39.1  99.9  1.00  0.00  0.00  0.00  0.00   0.0  0.00  0.00  0.00
 2019 185    16    16  26.8 .0625   9.3 0.024  2.25   2.6 .0382 0.005 .0432   454   402     5   443    37     4     5 0.006     0     0 .0630  0.09  1.00 219.5  0.31  51.4  99.9  1.00  0.00  0.00  0.00  0.00   0.0  0.00  0.00  0.00
 2019 186    17    17  25.7 .0701  10.5 0.035  2.50   5.3 .0553 0.007 .0627   462   388     7   447    53     6     7 0.009     1     0 0.104  0.12  1.00 218.0  0.33  53.3  99.9  1.00  0.00  0.00  0.00  0.00   0.0  0.00  0.00  0.00
 2019 187    18    18  27.2 .0781  11.8 0.050  2.25   6.9 .0796 0.010 .0895   473   374    10   453    71     8    10 0.012     1     0 0.161  0.16  1.00 219.1  0.34  50.0  99.9  1.00  0.00  0.00  0.00  0.00   0.0  0.00  0.00  0.00
 2019 188    19    19  27.2 .0855  13.2 0.068  2.32   9.3 0.108 0.013 0.121   485   360    12   461    91    11    12 0.015     1     0 0.236  0.21  1.00 219.8  0.35  56.4  99.9  1.00  0.00  0.00  0.00  0.00   0.0  0.00  0.00  0.00
 2019 189    20    20  23.8 .0929  14.2 0.086  2.62  14.6 0.138 0.015 0.154   504   351    14   475   111    13    15 0.018     1     0 0.326  0.26  1.00 217.2  0.36  54.8  99.9  1.00  0.00  0.00  0.00  0.00   0.0  0.08  0.01  0.00
 2019 190    21    21  26.4 0.101  15.4 0.102  2.39  17.0 0.166 0.019 0.185   526   342    17   491   133    16    18 0.021     1     0 0.433  0.30  1.00 217.3  0.37  52.0  99.9  1.00  0.00  0.00  0.00  0.00   0.0  0.00  0.00  0.00
 2019 191    22    22  26.0 0.109  16.6 0.122  2.42  21.9 0.200 0.022 0.222   553   338    20   513   156    20    20 0.024     2     0 0.560  0.34  1.00 217.2  0.38  50.5  99.9  1.00  0.00  0.00  0.00  0.00   0.0  0.00  0.00  0.00
 2019 192    23    23  24.4 0.117  17.6 0.141  2.63  24.7 0.233 0.025 0.258   581   332    23   535   180    23    23 0.026     2     0 0.701  0.38  1.00 215.9  0.39  51.1  99.9  1.00  0.00  0.00  0.00  0.00   0.0  0.04  0.00  0.00
 2019 193    24    24  25.5 0.125  18.7 0.160  2.48  28.3 0.268 0.028 0.296   615   332    26   563   204    27    26 0.029     2     0 0.859  0.41  1.00 215.6  0.41  65.5  99.9  1.00  0.00  0.00  0.00  0.00   0.0  0.00  0.00  0.00
 2019 194    25    25  26.5 0.134  19.9 0.179  2.14  30.9 0.303 0.032 0.335   652   334    28   592   226    31    32 0.034     3     0 1.045  0.45  1.00 215.9  0.41  56.5  87.6  1.00  0.00  0.00  0.00  0.00   0.0  0.00  0.00  0.00
 2019 195    26    26  26.0 0.141  21.1 0.197  2.30  36.3 0.337 0.035 0.372   692   337    31   622   250    35    39 0.039     3     0 1.252  0.51  1.00 215.9  0.42  69.0  99.9  1.00  0.00  0.00  0.00  0.00   0.0  0.00  0.00  0.00
 2019 196    27    27  26.2 0.149  22.3 0.215  2.34  39.1 0.373 0.038 0.411   735   339    34   652   273    40    50 0.048     4     0 1.481  0.60  1.00 216.0  0.43  70.5  95.2  1.00  0.00  0.00  0.00  0.00   0.0  0.00  0.00  0.00
 2019 197    28    28  27.5 0.157  23.5 0.232  1.83  35.3 0.406 0.042 0.448   777   341    37   686   301    45    53 0.050     5     0 1.744  0.72  1.00 216.8  0.44  65.5  74.8  1.00  0.00  0.00  0.00  0.00   0.0  0.00  0.00  0.00
 2019 198    29    29  27.4 0.164  24.8 0.254  1.83  39.7 0.450 0.045 0.496   822   343    40   719   326    50    63 0.056     5     0 2.043  0.74  1.00 217.3  0.45  62.6  64.0  1.00  0.00  0.00  0.00  0.00   0.0  0.00  0.00  0.00
 2019 199    30    30  26.5 0.172  26.0 0.272  2.53  49.1 0.488 0.049 0.538   872   346    43   754   352    55    75 0.064     6     0 2.365  0.83  1.00 217.4  0.46  59.0  69.3  1.00  0.00  0.00  0.00  0.00   0.0  0.00  0.00  0.00
 2019 200    31    31  24.8 0.179  27.0 0.291  2.45  53.2 0.529 0.053 0.582   932   348    47   791   382    61    94 0.077     8     0 2.705  0.95  1.00 216.8  0.47  69.3  74.9  1.00  0.00  0.00  0.00  0.00   0.0  0.02  0.00  0.00
 2019 201    32    32  26.0 0.188  28.1 0.310  2.19  58.6 0.571 0.057 0.628  1000   351    50   828   411    67   122 0.094     9     0 3.072  1.14  1.00 216.7  0.48  67.1  57.2  1.00  0.00  0.00  0.00  0.00   0.0  0.00  0.00  0.00
 2019 202    33    33  26.4 0.196  29.2 0.329  2.16  61.2 0.614 0.061 0.675  1066   353    53   863   437    73   149 0.110    12     0 3.460  1.41  1.00 216.8  0.49  63.2  50.5  1.00  0.00  0.00  0.00  0.00   0.0  0.00  0.00  0.00
 2019 203    34    34  25.7 0.203  30.3 0.346  2.39  64.2 0.654 0.065 0.719  1132   356    57   904   469    79   171 0.120    15     0 3.858  1.65  1.00 216.7  0.50  63.7  54.9  1.00  0.00  0.00  0.00  0.00   0.0  0.00  0.00  0.00
 2019 204    35    35  26.8 0.211  31.4 0.366  2.23  67.6 0.701 0.069 0.770  1207   358    60   942   498    86   205 0.136    17     0 4.288  1.82  1.00 216.9  0.51  62.8  46.9  1.00  0.00  0.00  0.00  0.00   0.0  0.00  0.00  0.00
 2019 205    36    36  27.7 0.219  32.7 0.384  2.00  59.3 0.745 0.074 0.819  1269   361    64   981   527    93   225 0.143    20     0 4.762  2.09  1.00 217.3  0.52  61.6  46.5  1.00  0.00  0.00  0.00  0.00   0.0  0.00  0.00  0.00
 2019 206    37    37  24.8 0.226  33.6 0.402  2.75  84.5 0.791 0.078 0.869  1358   363    67  1023   560   100   268 0.162    22     0 5.250  2.19  1.00 216.9  0.53  67.0  51.9  1.00  0.00  0.00  0.00  0.00   0.0  0.01  0.00  0.00
 2019 207    38    38  25.8 0.235  34.7 0.420  2.47  74.1 0.838 0.083 0.921  1435   365    71  1066   593   107   298 0.172    27     0 5.757  2.51  1.00 216.8  0.54  65.4  50.6  1.00  0.00  0.00  0.00  0.00   0.0  0.00  0.00  0.00
 2019 208    39    39  25.9 0.243  35.7 0.438  2.42  79.8 0.887 0.087 0.975  1522   368    75  1110   627   115   338 0.186    30     0 6.291  2.69  1.00 216.7  0.55  63.7  44.7  1.00  0.00  0.00  0.00  0.00   0.0  0.00  0.00  0.00
 2019 209    40    40  26.1 0.251  36.8 0.456  2.67  96.5 0.937 0.092 1.029  1627   370    79  1154   661   123   394 0.205    34     0 6.842  2.93  1.00 216.7  0.56  62.0  39.9  1.00  0.00  0.00  0.00  0.00   0.0  0.00  0.00  0.00
 2019 210    41    41  26.2 0.259  37.9 0.474  2.36  85.2 0.988 0.097 1.086  1716   372    83  1200   696   131   433 0.215    39     0 7.409  3.28  1.00 216.7  0.57  60.4  38.7  1.00  0.00  0.00  0.00  0.00   0.0  0.00  0.00  0.00
 2019 211    42    42  26.5 0.266  38.9 0.492  2.12  76.0 1.041 0.102 1.143  1795   375    86  1242   728   139   466 0.223    43     0 8.024  3.49  1.00 216.8  0.58  59.0  38.0  1.00  0.00  0.04  0.00  0.00   0.0  0.00  0.00  0.00
 2019 212    43    43  26.2 0.273  39.8 0.508  2.51  98.8 1.090 0.106 1.196  1901   377    90  1286   762   148   525 0.239    47     0 8.672  3.62  1.00 216.9  0.59  57.5  34.0  1.00  0.00  0.10  0.00  0.00   0.0  0.00  0.00  0.00
 2019 213    44    44  25.8 0.279  40.7 0.523  2.43 103.7 1.140 0.111 1.251  2013   379    94  1331   796   156   588 0.254    52     0 9.350  3.94  1.00 216.8  0.60  63.3  34.8  1.00  0.00  0.16  0.00  0.00   0.0  0.00  0.00  0.00
 2019 214    45    45  25.1 0.287  41.6 0.539  2.54 105.7 1.190 0.116 1.306  2121   382    98  1377   830   165   646 0.267    59     0 10.05  4.27  1.00 216.6  0.61  67.4  38.2  1.00  0.00  0.01  0.00  0.00   0.0  0.00  0.00  0.00
 2019 215    46    46  25.8 0.296  42.6 0.554  2.44 101.8 1.241 0.121 1.361  2227   384   102  1423   865   174   703 0.278    65     0 10.78  4.54  1.00 216.5  0.62  65.2  36.1  1.00  0.00  0.00  0.00  0.00   0.0  0.00  0.00  0.00
 2019 216    47    47  26.0 0.304  43.6 0.568  2.33 110.4 1.292 0.125 1.417  2348   386   106  1469   900   183   773 0.292    70     0 11.53  4.78  1.00 216.5  0.63  62.9  30.7  1.00  0.00  0.00  0.00  0.00   0.0  0.00  0.00  0.00
 2019 217    48    48  25.8 0.311  44.6 0.583  2.56 118.5 1.344 0.130 1.474  2469   388   110  1517   935   193   843 0.305    77     0 12.31  5.10  1.00 216.4  0.63  77.5  39.0  1.00  0.00  0.07  0.00  0.00   0.0  0.00  0.00  0.00
 2019 218    49    49  25.8 0.319  45.5 0.597  2.45 113.3 1.397 0.136 1.532  2587   391   114  1565   971   203   909 0.315    84     0 13.11  5.39  1.00 216.4  0.64  82.9  41.4  1.00  0.00  0.00  0.00  0.00   0.0  0.00  0.00  0.00
 2019 219    50    50  24.2 0.327  46.4 0.610  2.80 128.5 1.450 0.141 1.591  2719   393   118  1614  1009   212   987 0.327    91     0 13.92  5.63  1.00 216.0  0.65  87.8  45.9  1.00  0.00  0.00  0.00  0.00   0.0  0.06  0.00  0.00
 2019 220    51    51  24.7 0.336  47.3 0.624  2.77 133.6 1.504 0.146 1.650  2860   395   122  1664  1046   222  1074 0.340    99     0 14.74  5.93  1.00 215.8  0.66  85.7  42.1  1.00  0.00  0.00  0.00  0.00   0.0  0.02  0.00  0.00
 2019 221    52    52  25.6 0.344  48.2 0.637  2.61 135.8 1.558 0.151 1.709  3005   397   126  1713  1083   233  1166 0.353   107     0 15.58  6.27  1.00 215.7  0.67  83.8  37.5  1.00  0.00  0.00  0.00  0.00   0.0  0.00  0.00  0.00
 2019 222    53    53  26.4 0.352  49.2 0.649  2.25 122.6 1.612 0.156 1.768  3135   399   130  1762  1119   243  1243 0.362   117     0 16.45  6.62  1.00 215.8  0.68  81.0  34.2  1.00  0.00  0.00  0.00  0.00   0.0  0.00  0.00  0.00
 2019 223    54    54  26.5 0.360  50.3 0.662  2.29 118.2 1.667 0.161 1.828  3254   402   134  1812  1156   254  1308 0.368   124     0 17.37  6.86  1.00 215.9  0.69  84.7  37.6  1.00  0.00  0.00  0.00  0.00   0.0  0.00  0.00  0.00
 2019 224    55    55  24.9 0.368  51.1 0.674  2.56 140.4 1.723 0.167 1.889  3402   404   138  1863  1195   264  1401 0.379   131     0 18.33  7.02  1.00 215.7  0.70  82.7  35.5  1.00  0.00  0.00  0.00  0.00   0.0  0.01  0.00  0.00
 2019 225    56    56  26.2 0.376  52.1 0.685  2.18 125.8 1.779 0.172 1.951  3536   406   142  1914  1233   275  1479 0.386   140     0 19.36  7.32  1.00 215.8  0.71  81.4  32.4  1.00  0.00  0.00  0.00  0.00   0.0  0.00  0.00  0.00
 2019 226    57    57  26.5 0.384  53.1 0.697  2.40 142.9 1.835 0.177 2.012  3685   408   146  1965  1271   287  1573 0.395   148     0 20.44  7.53  1.00 215.9  0.72  78.3  30.0  1.00  0.00  0.00  0.00  0.00   0.0  0.00  0.00  0.00
 2019 227    58    58  25.3 0.392  54.0 0.708  2.35 138.2 1.893 0.183 2.075  3826   410   150  2018  1310   298  1658 0.402   157     0 21.54  7.80  1.00 215.8  0.72  77.3  30.7  1.00  0.00  0.00  0.00  0.00   0.0  0.00  0.00  0.00
 2019 228    59    59  25.3 0.400  54.9 0.718  2.43 140.2 1.950 0.188 2.138  3969   412   155  2071  1350   309  1743 0.409   166     0 22.66  8.00  1.00 215.7  0.73  76.0  30.8  1.00  0.00  0.00  0.00  0.00   0.0  0.00  0.00  0.00
 2019 229    60    60  26.4 0.408  55.9 0.729  2.24 136.3 2.008 0.195 2.203  4114   414   159  2130  1394   321  1825 0.414   174     0 23.83  8.19  1.00 215.8  0.74  73.0  27.5  1.00  0.00  0.00  0.00  0.00   0.0  0.00  0.00  0.00
 2019 230    61    61  25.7 0.415  56.7 0.739  2.40 144.9 2.068 0.200 2.268  4263   416   164  2183  1434   333  1916 0.420   182     0 25.03  8.36  1.00 215.7  0.75  93.5  35.8  1.00  0.00  0.07  0.00  0.00   0.0  0.00  0.00  0.00
 2019 231    62    62  25.3 0.423  57.6 0.750  2.51 148.6 2.134 0.206 2.340  4414   418   168  2237  1474   345  2009 0.426   192     0 26.25  8.57  1.00 215.6  0.76  92.3  36.4  1.00  0.00  0.00  0.00  0.00   0.0  0.00  0.00  0.00
 2019 232    63    63  26.8 0.432  58.6 0.760  2.20 138.6 2.193 0.212 2.405  4562   421   172  2295  1518   357  2095 0.431   201     0 27.51  8.76  1.00 215.8  0.77  89.4  32.1  1.00  0.00  0.00  0.00  0.00   0.0  0.00  0.00  0.00
 2019 233    64    64  26.4 0.439  59.5 0.770  2.29 139.3 2.260 0.218 2.478  4703   423   177  2354  1563   369  2173 0.434   209     0 28.82  8.90  1.00 215.8  0.78 106.7  40.0  1.00  0.00  0.00  0.00  0.00   0.0  0.00  0.00  0.00
 2019 234    65    65  25.8 0.447  60.4 0.780  2.25 151.4 2.327 0.224 2.551  4867   425   181  2414  1608   381  2272 0.440   217     0 30.17  9.00  1.00 215.8  0.79 105.4  35.8  1.00  0.00  0.00  0.00  0.00   0.0  0.00  0.00  0.00
 2019 235    66    66  25.6 0.455  61.3 0.789  2.47 142.4 2.395 0.231 2.626  5003   427   186  2474  1654   393  2343 0.442   227     0 31.54  9.18  1.00 215.8  0.80 120.8  48.4  1.00  0.00  0.00  0.00  0.00   0.0  0.00  0.00  0.00
 2019 236    67    67  25.5 0.463  62.1 0.798  2.35 145.5 2.463 0.237 2.700  5158   429   191  2534  1700   406  2433 0.446   234     0 32.95  9.24  1.00 215.7  0.81 117.8  43.8  1.00  0.00  0.00  0.00  0.00   0.0  0.00  0.00  0.00
 2019 237    68    68  25.6 0.471  63.0 0.807  2.38 169.3 2.530 0.243 2.772  5342   431   195  2588  1739   419  2559 0.454   243     0 34.37  9.40  1.00 215.7  0.82 116.3  37.6  1.00  0.00  0.00  0.00  0.00   0.0  0.00  0.00  0.00
 2019 238    69    69  25.9 0.479  63.9 0.814  2.24 158.4 2.588 0.249 2.837  5505   433   199  2648  1784   432  2657 0.458   256     0 35.82  9.66  1.00 215.7  0.82 108.4  35.0  1.00  0.00  0.00  0.00  0.00   0.0  0.00  0.00  0.00
 2019 239    70    70  24.7 0.487  64.7 0.822  2.63 175.7 2.655 0.256 2.912  5682   435   205  2717  1838   445  2760 0.462   266     0 37.27  9.78  1.00 215.5  0.83 109.7  38.5  1.00  0.00  0.00  0.00  0.00   0.0  0.02  0.00  0.00
 2019 240    71    71  26.3 0.496  65.6 0.830  2.07 139.4 2.724 0.262 2.986  5826   437   209  2776  1881   458  2841 0.464   276     0 38.78  9.94  1.00 215.6  0.84 110.3  36.9  1.00  0.00  0.00  0.00  0.00   0.0  0.00  0.00  0.00
 2019 241    72    72  26.9 0.504  66.5 0.838  1.91 145.0 2.798 0.268 3.067  5984   438   213  2833  1924   471  2938 0.468   284     0 40.37 10.03  1.00 215.7  0.85 110.7  32.4  1.00  0.00  0.00  0.00  0.00   0.0  0.00  0.00  0.00
 2019 242    73    73  26.9 0.511  67.5 0.844  1.99 136.2 2.862 0.274 3.137  6117   440   217  2889  1965   484  3010 0.469   294     0 42.03 10.17  1.00 215.8  0.86 108.4  35.4  1.00  0.00  0.00  0.00  0.00   0.0  0.00  0.00  0.00
 2019 243    74    74  25.8 0.519  68.3 0.851  2.54 176.9 2.925 0.280 3.205  6299   442   221  2946  2006   498  3132 0.475   301     0 43.70 10.22  1.00 215.8  0.87 129.1  42.3  1.00  0.00  0.00  0.00  0.00   0.0  0.00  0.00  0.00
 2019 244    75    75  26.2 0.527  69.2 0.856  2.29 180.9 2.986 0.285 3.271  6496   444   225  3000  2044   511  3271 0.482   313     0 45.45 10.44  1.00 215.8  0.88 117.5  33.5  1.00  0.00  0.00  0.00  0.00   0.0  0.00  0.00  0.00
 2019 245    76    76  26.1 0.534  70.1 0.862  2.46 180.3 3.044 0.291 3.335  6673   446   229  3058  2088   525  3386 0.486   327     0 47.22 10.70  1.00 215.8  0.89 115.5  35.6  1.00  0.00  0.00  0.00  0.00   0.0  0.00  0.00  0.00
 2019 246    77    77  27.0 0.542  71.0 0.867  2.12 158.1 3.109 0.297 3.406  6837   448   233  3115  2128   539  3489 0.489   339     0 49.01 10.87  1.00 215.9  0.90 116.8  34.8  1.00  0.00  0.00  0.00  0.00   0.0  0.00  0.00  0.00
 2019 247    78    78  27.1 0.550  71.9 0.873  2.08 154.4 3.171 0.302 3.473  6994   450   236  3168  2166   553  3590 0.492   349     0 50.84 11.01  1.00 216.0  0.91 127.7  38.1  1.00  0.00  0.00  0.00  0.00   0.0  0.00  0.00  0.00
 2019 248    79    79  26.0 0.557  72.7 0.877  2.32 178.9 3.221 0.307 3.528  7180   452   240  3222  2203   566  3719 0.497   359     0 52.71 11.14  1.00 216.0  0.92 147.0  43.0  1.00  0.00  0.00  0.00  0.00   0.0  0.00  0.00  0.00
 2019 249    80    80  26.9 0.565  73.6 0.882  2.04 161.1 3.285 0.312 3.597  7346   454   243  3272  2238   580  3831 0.501   372     0 54.63 11.36  1.00 216.1  0.93 137.1  38.4  1.00  0.00  0.00  0.00  0.00   0.0  0.00  0.00  0.00
 2019 250    81    81  27.0 0.573  74.5 0.886  1.97 152.3 3.338 0.317 3.654  7500   455   246  3321  2271   594  3933 0.504   383     0 56.62 11.54  1.00 216.2  0.94 135.5  38.8  1.00  0.00  0.00  0.00  0.00   0.0  0.00  0.00  0.00
 2019 251    82    82  26.0 0.580  75.3 0.889  2.26 163.1 3.388 0.321 3.709  7661   457   249  3369  2303   609  4043 0.508   393     0 58.61 11.67  1.00 216.2  0.95 131.0  40.8  1.00  0.00  0.00  0.00  0.00   0.0  0.00  0.00  0.00
 2019 252    83    83  25.5 0.588  76.1 0.893  2.25 170.0 3.435 0.325 3.761  7837   459   251  3415  2333   623  4171 0.513   404     0 60.58 11.84  1.00 216.2  0.96 135.7  40.6  1.00  0.00  0.00  0.00  0.00   0.0  0.00  0.00  0.00
 2019 253    84    84  26.1 0.596  76.9 0.896  2.15 166.9 3.479 0.329 3.809  8009   461   254  3459  2361   637  4296 0.517   417     0 62.58 12.06  1.00 216.2  0.97 153.6  44.3  1.00  0.00  0.00  0.00  0.00   0.0  0.00  0.00  0.00
 2019 254    85    85  26.0 0.604  77.7 0.899  2.40 187.7 3.521 0.334 3.855  8200   463   256  3506  2392   652  4438 0.522   430     0 64.55 12.25  1.00 216.2  0.98 153.0  44.0  1.00  0.00  0.00  0.00  0.00   0.0  0.00  0.00  0.00
 2019 255    86    86  26.8 0.612  78.6 0.901  2.03 158.1 3.562 0.337 3.899  8359   465   258  3547  2416   666  4554 0.526   444     0 66.54 12.51  1.00 216.2  0.98 144.4  41.1  1.00  0.00  0.00  0.00  0.00   0.0  0.00  0.00  0.00
 2019 256    87    87  27.6 0.620  79.5 0.904  2.09 158.8 3.604 0.341 3.945  8519   466   261  3590  2444   681  4668 0.529   455     0 68.58 12.68  1.00 216.3  0.99 140.8  40.3  1.00  0.00  0.00  0.00  0.00   0.0  0.00  0.00  0.00
 2019 257    88    88  27.0 0.627  80.4 0.907  1.99 153.1 3.647 0.345 3.991  8675   468   263  3633  2470   695  4779 0.533   467     0 70.68 12.85  1.00 216.3  1.00 140.6  40.2  1.00  0.00  0.00  0.00  0.00   0.0  0.00  0.00  0.00
 2019 258    89    89  26.6 0.634  81.2 0.909  2.24 181.1 3.687 0.348 4.035  8862   470   265  3675  2495   710  4922 0.537   478     0 72.80 13.01  1.00 216.4  1.01 137.2  37.5  1.00  0.00  0.00  0.00  0.00   0.0  0.00  0.00  0.00
 2019 259    90    90  25.6 0.642  81.9 0.911  2.43 174.4 3.725 0.351 4.076  9028   472   267  3715  2519   724  5046 0.541   492     0 74.94 13.25  1.00 216.3  1.02 157.9  49.6  1.00  0.00  0.00  0.00  0.00   0.0  0.00  0.00  0.00
 2019 260    91    91  26.7 0.650  82.8 0.913  2.03 152.4 3.761 0.355 4.116  9187   473   269  3758  2545   739  5160 0.544   505     0 77.10 13.43  1.00 216.4  1.03 150.8  44.2  1.00  0.00  0.00  0.00  0.00   0.0  0.00  0.00  0.00
 2019 261    92    92  27.1 0.658  83.6 0.915  2.03 167.9 3.795 0.358 4.153  9364   475   270  3795  2566   754  5298 0.548   516     0 79.27 13.60  1.00 216.4  1.04 166.6  44.0  1.00  0.00  0.00  0.00  0.00   0.0  0.00  0.00  0.00
 2019 262    93    93  25.5 0.665  84.4 0.917  2.26 166.3 3.826 0.360 4.187  9521   477   272  3828  2583   769  5421 0.552   530 1.186 81.41 13.84  1.00 216.4  1.05 158.5  48.4  1.00  0.00  0.00  0.00  0.00   0.0  0.00  0.00  0.00
 2019 263    94    94  26.8 0.673  85.2 0.918  1.82 167.9 3.848 0.363 4.211  9710   478   274  3861  2599   783  5575 0.557   542 2.903 83.59 14.04  1.00 216.4  1.06 142.5  33.9  1.00  0.00  0.00  0.00  0.00   0.0  0.00  0.00  0.00
 2019 264    95    95  26.6 0.681  86.0 0.919  1.99 178.3 3.864 0.364 4.228  9884   480   275  3886  2608   798  5722 0.562   558 6.515 85.84 14.35  1.00 216.5  1.07 145.5  35.7  1.00  0.00  0.00  0.00  0.00   0.0  0.00  0.00  0.00
 2019 265    96    96  27.0 0.688  86.8 0.919  1.85 169.7 3.871 0.365 4.235 10053   482   277  3910  2615   813  5866 0.567   572 11.51 88.13 14.64  1.00 216.5  1.08 143.2  34.0  1.00  0.00  0.00  0.00  0.00   0.0  0.00  0.00  0.00
 2019 266    97    97  27.8 0.696  87.7 0.919  1.77 143.7 3.873 0.365 4.238 10182   484   278  3926  2615   828  5978 0.570   587 17.19 90.46 14.94  1.00 216.6  1.09 147.5  39.1  1.00  0.00  0.00  0.00  0.00   0.0  0.00  0.00  0.00
 2019 267    98    98  27.5 0.703  88.5 0.919  2.10 173.6 3.875 0.364 4.239 10352   485   279  3939  2611   843  6134 0.576   598 23.70 92.82 15.18  1.00 216.6  1.10 161.3  42.4  1.00  0.00  0.00  0.00  0.00   0.0  0.00  0.00  0.00
 2019 268    99    99  27.7 0.710  89.3 0.919  1.79 161.6 3.866 0.363 4.229 10515   487   280  3948  2603   858  6287 0.581   613 30.94 95.19 15.54  1.00 216.7  1.11 168.4  40.4  1.00  0.00  0.00  0.00  0.00   0.0  0.00  0.00  0.00
 2019 269   100   100  26.5 0.717  90.1 0.919  2.15 181.8 3.861 0.363 4.224 10686   489   281  3963  2602   873  6442 0.587   629 37.22 97.58 15.87  1.00 216.7  1.12 168.1  43.9  1.00  0.00  0.00  0.00  0.00   0.0  0.00  0.00  0.00
 2019 270   101   101  25.9 0.725  90.8 0.919  2.24 178.0 3.861 0.363 4.224 10854   490   283  3979  2601   887  6593 0.591   644 43.01 99.96 16.19  1.00 216.7  1.13 176.2  49.5  1.00  0.00  0.00  0.00  0.00   0.0  0.00  0.00  0.00
 2019 271   102   102  26.9 0.733  91.6 0.918  1.71 154.1 3.850 0.362 4.211 11014   492   284  3989  2595   902  6741 0.596   659 50.90 102.3 16.53  1.00 216.7  1.14 177.5  43.1  1.00  0.00  0.00  0.00  0.00   0.0  0.00  0.00  0.00
 2019 272   103   103  27.1 0.740  92.4 0.918  1.80 150.6 3.840 0.360 4.200 11152   493   284  3994  2583   917  6874 0.600   674 58.33 104.7 16.88  1.00 216.7  1.15 170.9  44.6  1.00  0.00  0.00  0.00  0.00   0.0  0.00  0.00  0.00
 2019 273   104   104  27.4 0.748  93.2 0.917  1.94 155.1 3.824 0.359 4.183 11296   495   285  3999  2572   932  7012 0.605   687 66.14 107.1 17.19  1.00 216.8  1.16 165.1  45.0  1.00  0.00  0.00  0.00  0.00   0.0  0.00  0.00  0.00
 2019 274   105   105  27.3 0.755  94.0 0.916  1.89 154.7 3.804 0.357 4.162 11446   497   286  4004  2560   947  7155 0.609   701 74.74 109.5 17.51  1.00 216.8  1.17 171.2  45.4  1.00  0.00  0.00  0.00  0.00   0.0  0.00  0.00  0.00
 2019 275   106   106  26.1 0.762  94.8 0.915  2.42 188.5 3.791 0.356 4.146 11623   498   287  4011  2551   962  7325 0.614   716 82.76 111.9 17.84  1.00 216.8  1.18 179.1  51.4  1.00  0.00  0.00  0.00  0.00   0.0  0.00  0.00  0.00
 2019 276   107   107  26.0 0.770  95.5 0.914  2.19 171.4 3.783 0.355 4.138 11789   500   288  4024  2547   977  7477 0.619   733 89.38 114.3 18.20  1.00 216.8  1.19 190.6  54.4  1.00  0.00  0.00  0.00  0.00   0.0  0.00  0.00  0.00
 2019 277   108   108  26.7 0.778  96.2 0.914  2.21 180.6 3.770 0.354 4.124 11967   501   289  4029  2536   992  7649 0.624   748 96.95 116.6 18.56  1.00 216.8  1.20 184.8  49.9  1.00  0.00  0.00  0.00  0.00   0.0  0.00  0.00  0.00
 2019 278   109   109  26.9 0.786  97.0 0.913  1.97 161.8 3.752 0.352 4.104 12122   503   290  4031  2521  1007  7802 0.628   765 105.4 119.0 18.98  1.00 216.9  1.20 163.4  43.6  1.00  0.00  0.00  0.00  0.00   0.0  0.00  0.00  0.00
 2019 279   110   110  25.7 0.793  97.7 0.912  2.27 178.1 3.732 0.350 4.083 12289   505   290  4036  2510  1022  7962 0.633   780 113.4 121.2 19.33  1.00 216.8  1.20 164.5  47.1  1.00  0.00  0.00  0.00  0.00   0.0  0.00  0.00  0.00
 2019 280   111   111  25.6 0.801  98.3 0.910  2.27 164.4 3.712 0.348 4.060 12439   506   291  4040  2498  1036  8108 0.637   796 121.5 123.5 19.71  1.00 216.8  1.20 172.1  53.5  1.00  0.00  0.00  0.00  0.00   0.0  0.00  0.00  0.00
 2019 281   112   112  25.8 0.810  99.0 0.909  2.28 175.6 3.689 0.346 4.035 12611   508   292  4037  2479  1051  8282 0.642   811 131.1 125.8 20.08  1.00 216.8  1.20 173.0  50.6  1.00  0.00  0.00  0.00  0.00   0.0  0.00  0.00  0.00
 2019 282   113   113  26.9 0.818  99.8 0.908  1.83 129.8 3.665 0.344 4.009 12726   509   293  4040  2465  1066  8394 0.645   828 139.7 128.1 20.50  1.00 216.8  1.20 168.8  52.2  1.00  0.00  0.00  0.00  0.00   0.0  0.00  0.00  0.00
 2019 283   114   114  27.0 0.825 100.5 0.906  1.79 134.5 3.643 0.342 3.985 12857   511   294  4042  2451  1081  8521 0.648   839 148.6 130.4 20.76  1.00 216.9  1.20 167.1  48.5  1.00  0.00  0.00  0.00  0.00   0.0  0.00  0.00  0.00
 2019 284   115   115  26.6 0.833 101.2 0.905  2.03 160.1 3.618 0.339 3.957 13011   512   294  4039  2432  1095  8677 0.652   852 158.2 132.8 21.09  1.00 216.9  1.20 191.1  53.5  1.00  0.00  0.00  0.00  0.00   0.0  0.00  0.00  0.00
 2019 285   116   116  26.8 0.840 102.0 0.903  1.66 132.8 3.590 0.336 3.926 13135   514   295  4034  2411  1110  8807 0.656   868 168.1 135.2 21.51  1.00 216.9  1.20 188.4  51.6  1.00  0.00  0.00  0.00  0.00   0.0  0.00  0.00  0.00
 2019 286   117   117  27.0 0.848 102.7 0.901  1.77 138.5 3.557 0.333 3.891 13263   515   295  4030  2391  1124  8937 0.659   881 178.2 137.7 21.85  1.00 216.9  1.20 176.5  49.6  1.00  0.00  0.00  0.00  0.00   0.0  0.00  0.00  0.00
 2019 287   118   118  27.3 0.855 103.4 0.898  1.66 134.5 3.515 0.329 3.844 13388   517   295  4016  2361  1139  9077 0.663   894 190.3 140.2 22.25  1.00 216.9  1.20 188.1  50.6  1.00  0.00  0.00  0.00  0.00   0.0  0.00  0.00  0.00
 2019 288   119   119  27.8 0.862 104.2 0.896  1.85 136.3 3.479 0.326 3.805 13507   518   295  4007  2336  1154  9205 0.667   908 201.2 142.7 22.65  1.00 217.0  1.20 179.4  52.8  1.00  0.00  0.00  0.00  0.00   0.0  0.00  0.00  0.00
 2019 289   120   120  25.5 0.870 104.8 0.894  2.41 202.1 3.449 0.323 3.772 13710   520   296  4003  2315  1168  9411 0.672   920 210.8 145.2 22.99  1.00 217.0  1.20 180.3  49.0  1.00  0.00  0.00  0.00  0.00   0.0  0.00  0.00  0.00
 2019 290   121   121  27.3 0.878 105.6 0.891  1.87 129.2 3.411 0.320 3.731 13811   521   296  3994  2291  1183  9520 0.675   941 221.8 147.7 23.56  1.00 217.0  1.20 176.0  55.6  1.00  0.00  0.00  0.00  0.00   0.0  0.00  0.00  0.00
 2019 291   122   122  26.2 0.885 106.2 0.888  2.19 165.8 3.375 0.316 3.691 13972   523   296  3984  2265  1197  9692 0.679   952 232.4 150.2 23.89  1.00 217.0  1.20 191.6  56.7  1.00  0.00  0.00  0.00  0.00   0.0  0.00  0.00  0.00
 2019 292   123   123  26.6 0.893 106.9 0.886  2.15 158.7 3.337 0.312 3.649 14118   524   296  3974  2239  1211  9847 0.683   969 243.3 152.6 24.38  1.00 217.0  1.20 184.0  55.6  1.00  0.00  0.00  0.00  0.00   0.0  0.00  0.00  0.00
 2019 293   124   124  27.1 0.901 107.6 0.883  1.85 136.9 3.297 0.309 3.606 14244   525   297  3965  2214  1226  9983 0.686   985 254.5 155.0 24.84  1.00 217.0  1.20 176.5  52.5  1.00  0.00  0.00  0.00  0.00   0.0  0.00  0.00  0.00
 2019 294   125   125  27.0 0.908 108.3 0.880  1.80 143.2 3.259 0.305 3.564 14382   527   297  3954  2187  1240 10131 0.690   998 265.3 157.4 25.25  1.00 217.1  1.20 181.5  50.4  1.00  0.00  0.00  0.00  0.00   0.0  0.00  0.00  0.00
 2019 295   126   126  27.3 0.915 109.0 0.877  1.89 149.0 3.221 0.301 3.522 14519   528   297  3943  2161  1254 10279 0.694  1013 276.2 159.9 25.69  1.00 217.1  1.20 191.4  53.3  1.00  0.00  0.00  0.00  0.00   0.0  0.00  0.00  0.00
 2019 296   127   127  27.2 0.923 109.7 0.874  1.75 133.0 3.181 0.298 3.479 14638   530   297  3932  2134  1268 10410 0.697  1028 287.3 162.4 26.14  1.00 217.1  1.20 191.5  55.6  1.00  0.00  0.00  0.00  0.00   0.0  0.00  0.00  0.00
 2019 297   128   128  25.8 0.930 110.4 0.870  2.45 189.6 3.144 0.294 3.438 14819   531   297  3923  2110  1283 10599 0.701  1041 297.9 164.9 26.53  1.00 217.1  1.20 184.3  54.2  1.00  0.00  0.00  0.00  0.00   0.0  0.00  0.00  0.00
 2019 298   129   129  27.8 0.938 111.1 0.866  1.62 122.7 3.098 0.290 3.387 14927   533   297  3906  2077  1297 10724 0.704  1060 310.1 167.4 27.13  1.00 217.1  1.20 181.3  52.2  1.00  0.00  0.00  0.00  0.00   0.0  0.00  0.00  0.00
 2019 299   130   130  27.3 0.945 111.8 0.862  2.09 162.4 3.051 0.285 3.336 15079   534   297  3891  2046  1311 10892 0.708  1072 322.2 169.9 27.57  1.00 217.2  1.20 191.4  54.6  1.00  0.00  0.00  0.00  0.00   0.0  0.00  0.00  0.00
 2019 300   131   131  25.8 0.952 112.4 0.859  2.27 157.4 3.011 0.282 3.293 15217   535   297  3881  2021  1325 11040 0.712  1089 333.1 172.4 28.07  1.00 217.1  1.20 192.0  63.0  1.00  0.00  0.00  0.00  0.00   0.0  0.00  0.00  0.00
 2019 301   132   132  25.7 0.961 113.0 0.855  2.23 165.3 2.971 0.278 3.249 15377   537   297  3867  1992  1339 11213 0.715  1104 344.0 174.8 28.55  1.00 217.1  1.20 187.0  57.5  1.00  0.00  0.00  0.00  0.00   0.0  0.00  0.00  0.00
 2019 302   133   133  27.5 0.969 113.7 0.850  1.67 134.9 2.922 0.273 3.195 15507   538   297  3850  1959  1353 11360 0.719  1121 356.6 177.2 29.13  1.00 217.2  1.20 175.4  47.7  1.00  0.00  0.00  0.00  0.00   0.0  0.00  0.00  0.00
 2019 303   134   134  28.1 0.976 114.4 0.845  1.31 105.1 2.870 0.269 3.139 15598   539   297  3831  1925  1366 11470 0.722  1136 369.7 179.7 29.65  1.00 217.2  1.20 167.8  45.6  1.00  0.00  0.00  0.00  0.00   0.0  0.00  0.00  0.00
 2019 304   135   135  27.1 0.983 115.1 0.840  1.87 148.5 2.820 0.264 3.084 15733   541   297  3811  1890  1380 11625 0.725  1147 382.5 182.2 30.10  1.00 217.2  1.20 191.2  53.4  1.00  0.00  0.00  0.00  0.00   0.0  0.00  0.00  0.00
 2019 305   136   136  27.6     1 115.8 0.834  1.50 117.3 2.765 0.259 3.023 15835   542   296  3789  1853  1394 11749 0.728  1163 396.2 184.8 30.68  1.00 217.3  1.20 182.8  51.4  1.00  0.00  0.00  0.00  0.00   0.0  0.00  0.00  0.00
 2019 306   137   137  27.0     1 116.4 0.828  1.85 145.4 2.711 0.254 2.964 15968   544   296  3769  1818  1408 11902 0.732  1175 409.7 187.3 31.17  1.00 217.3  1.20 191.2  54.2  1.00  0.00  0.00  0.00  0.00   0.0  0.00  0.00  0.00
 2019 307   138   138  27.6 1.008 117.1 0.821  1.65 123.6 2.646 0.247 2.894 16072   545   296  3739  1773  1421 12036 0.735  1190 425.3 189.8 31.83  2.20 217.3  1.20 165.5  48.7  1.00  0.00  0.00  0.00  0.00   0.0  0.00  0.00  0.00
 2019 308   139   139  27.7 1.011 117.8 0.812  1.50 110.9 2.573 0.240 2.813 16165   546   296  3704  1723  1435 12165 0.739  1204 442.0 192.3 32.50  2.20 217.3  1.20 156.4  46.7  1.00  0.00  0.00  0.00  0.00   0.0  0.00  0.00  0.00
 2019 309   140   140  28.4 1.015 118.5 0.804  1.42 107.6 2.504 0.235 2.739 16258   548   296  3678  1682  1448 12284 0.742  1217 457.3 194.8 33.07  2.20 217.4  1.20 151.8  43.8  1.00  0.00  0.00  0.00  0.00   0.0  0.00  0.00  0.00
 2019 310   141   141  28.2 1.018 119.2 0.796  1.32  96.7 2.447 0.229 2.676 16338   549   296  3654  1644  1462 12388 0.745  1228 472.4 197.3 33.62  2.20 217.5  1.20 147.3  44.0  1.00  0.00  0.00  0.00  0.00   0.0  0.00  0.00  0.00
 2019 311   142   142  28.0 1.021 119.9 0.788  1.09  79.6 2.390 0.224 2.613 16403   550   296  3629  1604  1475 12478 0.747  1239 487.0 199.8 34.14  2.20 217.5  1.20 142.8  42.9  1.00  0.00  0.00  0.00  0.00   0.0  0.00  0.00  0.00
 2019 312   143   143  28.4 1.025 120.6 0.782  1.17  88.1 2.343 0.220 2.563 16480   551   296  3617  1577  1489 12567 0.749  1248 499.4 202.4 34.50  2.20 217.6  1.20 138.2  40.2  1.00  0.00  0.00  0.00  0.00   0.0  0.00  0.00  0.00
 2019 313   144   144  28.5 1.028 121.3 0.774  1.11  81.9 2.290 0.215 2.505 16547   553   297  3596  1541  1502 12654 0.751  1257 514.7 204.9 34.95  2.20 217.8  1.20 133.9  39.7  1.00  0.00  0.00  0.00  0.00   0.0  0.00  0.00  0.00
 2019 314   145   145  27.5 1.031 121.9 0.767  1.65 115.6 2.238 0.210 2.448 16646   554   297  3576  1507  1515 12773 0.754  1265 529.3 207.4 35.39  2.20 217.8  1.20 141.9  45.5  1.00  0.00  0.06  0.00  0.00   0.0  0.00  0.00  0.00
 2019 315   146   146  27.8 1.035 122.6 0.759  1.51 102.8 2.188 0.206 2.394 16733   555   298  3561  1477  1529 12874 0.756  1277 544.0 209.9 35.86  2.20 217.9  1.20 139.5  45.5  1.00  0.00  0.00  0.00  0.00   0.0  0.00  0.00  0.00
 2019 316   147   147  26.8 1.038 123.2 0.751  1.64 100.3 2.141 0.201 2.342 16813   557   298  3539  1440  1542 12976 0.758  1287 559.6 212.5 36.38  2.20 217.9  1.20 135.6  50.3  1.00  0.00  0.00  0.00  0.00   0.0  0.00  0.00  0.00
 2019 317   148   148  27.5 1.042 123.8 0.741  1.46 104.1 2.080 0.195 2.275 16910   558   298  3512  1399  1555 13099 0.761  1298 575.9 215.0 36.94  2.20 218.0  1.20 131.7  41.3  1.00  0.00  0.00  0.00  0.00   0.0  0.00  0.00  0.00
 2019 318   149   149  27.8 1.045 124.5 0.732  1.54 108.7 2.027 0.191 2.218 17004   559   299  3496  1368  1569 13209 0.763  1310 591.0 217.5 37.47  2.20 218.1  1.20 127.2  40.1  1.00  0.00  0.00  0.00  0.00   0.0  0.00  0.00  0.00
 2019 319   150   150  27.4 1.048 125.1 0.724  1.22  87.6 1.983 0.186 2.169 17077   560   300  3475  1332  1582 13303 0.766  1321 605.6 220.1 38.01  2.20 218.2  1.20 122.8  38.4  1.00  0.00  0.07  0.00  0.00   0.0  0.00  0.00  0.00
 2019 320   151   151  27.9 1.051 125.6 0.715  1.21  83.5 1.932 0.181 2.113 17145   562   300  3455  1298  1595 13391 0.768  1330 619.8 222.6 38.51  2.20 218.2  1.20 118.6  38.5  1.00  0.00  0.14  0.00  0.00   0.0  0.00  0.00  0.00
 2019 321   152   152  28.3 1.054 126.2 0.708  1.18  81.4 1.894 0.178 2.071 17215   563   300  3443  1272  1608 13472 0.769  1339 631.6 225.2 38.89  2.20 218.3  1.20 114.5  37.0  1.00  0.00  0.20  0.00  0.00   0.0  0.00  0.00  0.00
 2019 322   153   153  28.5 1.057 126.7 0.699  1.03  71.6 1.845 0.173 2.018 17273   564   300  3422  1237  1621 13552 0.771  1347 645.1 227.7 39.37  2.20 218.4  1.20 137.1  43.9  1.00  0.00  0.26  0.00  0.00   0.0  0.00  0.00  0.00
 2019 323   154   154  28.6 1.060 127.3 0.688  1.02  67.5 1.793 0.168 1.961 17326   565   300  3404  1205  1634 13621 0.773  1355 658.8 230.3 39.81  2.20 218.6  1.20 132.5  44.3  1.00  0.00  0.00  0.00  0.00   0.0  0.00  0.00  0.00
 2019 324   155   155  28.0 1.063 128.0 0.680  1.38  83.3 1.753 0.164 1.917 17394   567   300  3388  1175  1647 13706 0.775  1362 670.6 232.8 40.20  2.20 218.6  1.20 129.9  48.1  1.00  0.00  0.00  0.00  0.00   0.0  0.00  0.00  0.00
 2019 325   156   156  27.3 1.067 128.6 0.673  1.38  82.8 1.718 0.161 1.879 17466   568   300  3380  1153  1660 13786 0.776  1371 680.9 235.4 40.55  2.20 218.7  1.20 130.0  49.3  1.00  0.00  0.00  0.00  0.00   0.0  0.00  0.00  0.00
 2019 326   157   157  28.4 1.070 129.2 0.665  1.41  83.9 1.683 0.158 1.841 17539   569   300  3372  1130  1673 13867 0.777  1379 691.6 237.9 40.88  2.20 218.8  1.20 125.7  47.2  1.00  0.00  0.00  0.00  0.00   0.0  0.00  0.00  0.00
 2019 327   158   158  28.3 1.073 129.9 0.659  1.03  63.8 1.653 0.154 1.808 17595   570   300  3363  1107  1686 13932 0.779  1387 701.3 240.5 41.24  2.20 218.8  1.20 121.4  43.8  1.00  0.00  0.00  0.00  0.00   0.0  0.00  0.00  0.00
 2019 328   159   159  28.2 1.077 130.5 0.653  1.02  60.3 1.628 0.153 1.780 17646   571   300  3364  1094  1699 13982 0.779  1393 709.5 243.0 41.42  2.20 219.0  1.20 117.4  44.4  1.00  0.00  0.01  0.00  0.00   0.0  0.00  0.00  0.00
 2019 329   160   160  28.4 1.080 131.1 0.646  1.17  70.9 1.599 0.150 1.749 17708   573   300  3356  1072  1711 14051 0.780  1398 719.6 245.6 41.66  2.20 219.1  1.20 113.5  42.0  1.00  0.00  0.08  0.00  0.00   0.0  0.00  0.00  0.00
 2019 330   161   161  28.2 1.083 131.6 0.638  1.02  61.8 1.565 0.146 1.711 17759   574   300  3347  1049  1724 14112 0.782  1405 730.1 248.1 41.99  2.20 219.2  1.20 109.8  40.9  1.00  0.00  0.14  0.00  0.00   0.0  0.00  0.00  0.00
 2019 331   162   162  28.6 1.085 132.2 0.632  0.66  40.9 1.537 0.144 1.681 17791   575   300  3342  1030  1737 14149 0.782  1411 739.3 250.7 42.23  2.20 219.3  1.20 105.9  37.3  1.00  0.00  0.20  0.00  0.00   0.0  0.00  0.00  0.00
 2019 332   163   163  27.8 1.088 132.6 0.626  0.61  37.9 1.512 0.141 1.653 17820   576   300  3336  1010  1749 14185 0.783  1415 748.0 253.2 42.42  2.20 219.3  1.20 102.3  36.7  1.00  0.00  0.26  0.00  0.00   0.0  0.00  0.00  0.00
 2019 333   164   164  28.1 1.090 133.0 0.619  0.81  48.4 1.485 0.139 1.624 17860   577   300  3333   994  1762 14226 0.784  1418 756.3 255.8 42.56  2.20 219.4  1.20 124.0  46.7  1.00  0.00  0.31  0.00  0.00   0.0  0.00  0.00  0.00
 2019 334   165   165  28.0 1.093 133.6 0.615  0.73  44.9 1.470 0.137 1.607 17898   578   300  3334   981  1774 14265 0.784  1423 762.8 258.3 42.68  2.20 219.5  1.20 119.2  43.3  1.00  0.00  0.00  0.00  0.00   0.0  0.00  0.00  0.00
 2019 335   166   166  27.2 1.097 134.2 0.608  0.93  51.5 1.441 0.134 1.576 17939   580   299  3329   963  1787 14311 0.785  1427 771.2 260.9 42.85  2.20 219.5  1.20 115.3  47.6  1.00  0.00  0.00  0.00  0.00   0.0  0.00  0.00  0.00
 2019 336   167   167  27.8 1.100 134.8 0.602  0.89  50.5 1.419 0.132 1.551 17983   581   299  3328   948  1799 14356 0.785  1431 778.2 263.4 43.00  2.20 219.6  1.20 111.7  44.9  1.00  0.00  0.02  0.00  0.00   0.0  0.00  0.00  0.00
 2019 337   168   168  27.6 1.103 135.3 0.597  0.95  53.0 1.398 0.130 1.529 18028   582   299  3328   935  1811 14401 0.786  1436 785.2 265.9 43.14  2.20 219.6  1.20 108.0  44.4  1.00  0.00  0.09  0.00  0.00   0.0  0.00  0.00  0.00
 2019 338   169   169  27.7 1.106 135.8 0.592  1.02  59.7 1.379 0.129 1.508 18082   583   299  3330   923  1824 14454 0.786  1440 792.1 268.5 43.25  2.20 219.7  1.20 104.4  40.5  1.00  0.00  0.15  0.00  0.00   0.0  0.00  0.00  0.00
 2019 339   170   170  27.5 1.109 136.3 0.588  0.96  54.2 1.365 0.127 1.493 18129   584   299  3333   912  1836 14498 0.787  1445 798.2 271.0 43.37  2.20 219.8  1.20 100.9  41.0  1.00  0.00  0.21  0.00  0.00   0.0  0.00  0.00  0.00
 2019 340   171   171  27.8 1.112 136.7 0.583  0.80  41.1 1.347 0.126 1.473 18161   585   298  3334   901  1848 14528 0.787  1450 804.9 273.6 43.48  2.20 219.8  1.20  97.7  43.5  1.00  0.00  0.26  0.00  0.00   0.0  0.00  0.00  0.00
 2019 341   172   172  27.6 1.114 137.1 0.579  0.75  42.4 1.332 0.124 1.457 18199   586   298  3339   892  1860 14562 0.787  1453 811.2 276.1 43.52  2.20 219.9  1.20  95.1  38.9  1.00  0.00  0.31  0.00  0.00   0.0  0.00  0.00  0.00
 2019 342   173   173  27.7 1.116 137.5 0.575  0.72  38.5 1.318 0.123 1.441 18230   588   298  3339   879  1873 14593 0.788  1456 817.4 278.6 43.61  2.20 219.9  1.20 117.5  50.4  1.00  0.02  0.35  0.00  0.00   0.0  0.00  0.00  0.00
 2019 343   174   174  28.2 1.120 138.1 0.572  0.62  34.9 1.306 0.121 1.428 18260   589   298  3344   871  1885 14619 0.788  1459 822.5 281.2 43.64  2.20 220.0  1.20 112.8  45.0  1.00  0.00  0.00  0.00  0.00   0.0  0.00  0.00  0.00
 2019 344   175   175  27.4 1.123 138.7 0.569  0.71  38.2 1.294 0.120 1.414 18292   590   297  3346   860  1897 14649 0.788  1462 827.3 283.7 43.68  2.20 220.0  1.20 108.9  46.1  1.00  0.00  0.00  0.00  0.00   0.0  0.00  0.00  0.00
 2019 345   176   176  26.7 1.127 139.2 0.563  1.07  61.3 1.273 0.118 1.391 18348   591   297  3348   849  1909 14703 0.789  1465 833.3 286.2 43.75  2.20 220.0  1.20 105.1  42.9  1.00  0.00  0.05  0.00  0.00   0.0  0.00  0.00  0.00
 2019 346   177   177  26.9 1.130 139.6 0.559  0.88  48.2 1.258 0.117 1.375 18389   592   296  3349   836  1920 14744 0.789  1470 838.6 288.7 43.91  2.20 220.0  1.20 101.6  43.1  1.00  0.00  0.12  0.00  0.00   0.0  0.00  0.00  0.00
 2019 347   178   178  27.6 1.133 140.1 0.554  0.69  39.5 1.241 0.115 1.356 18424   593   296  3353   827  1932 14776 0.789  1474 843.9 291.3 43.98  2.20 220.1  1.20  98.0  39.4  1.00  0.00  0.17  0.00  0.00   0.0  0.00  0.00  0.00
 2019 348   179   179  26.9 1.136 140.5 0.550  0.89  46.7 1.228 0.114 1.342 18464   594   295  3357   819  1944 14812 0.789  1478 848.9 293.8 44.02  2.20 220.1  1.20  94.9  42.2  1.00  0.00  0.23  0.00  0.00   0.0  0.00  0.00  0.00
 2019 349   180   180  26.7 1.138 140.9 0.547  0.84  45.8 1.217 0.113 1.330 18506   595   295  3364   813  1956 14846 0.790  1481 853.6 296.3 44.02  2.20 220.1  1.20  91.7  39.3  1.00  0.00  0.28  0.00  0.00   0.0  0.00  0.00  0.00
 2019 350   181   181  27.2 1.141 141.3 0.543  0.54  29.3 1.206 0.112 1.318 18529   596   295  3369   805  1967 14866 0.790  1485 859.0 298.8 44.07  2.20 220.1  1.20  89.1  38.3  1.00  0.00  0.33  0.00  0.00   0.0  0.00  0.00  0.00
 2019 351   182   182  27.5 1.143 141.6 0.540  0.51  26.6 1.193 0.111 1.304 18549   597   294  3374   797  1979 14881 0.790  1487 864.4 301.3 44.06  2.20 220.2  1.20 111.5  49.8  1.00  0.05  0.37  0.00  0.00   0.0  0.00  0.00  0.00
 2019 352   183   183  28.0 1.146 142.2 0.536  0.81  37.3 1.180 0.110 1.289 18579   598   294  3376   786  1991 14909 0.790  1488 870.1 303.8 44.08  2.20 220.2  1.20 107.5  53.2  1.00  0.00  0.02  0.00  0.00   0.0  0.00  0.00  0.00
 2019 353   184   184  27.6 1.150 142.7 0.532  0.67  31.9 1.168 0.108 1.277 18606   600   293  3378   776  2002 14935 0.790  1491 874.7 306.3 44.14  2.20 220.2  1.20 103.3  49.5  1.00  0.00  0.00  0.00  0.00   0.0  0.00  0.00  0.00
 2019 354   185   185  27.2 1.153 143.2 0.529  0.48  24.6 1.159 0.108 1.266 18628   601   293  3387   773  2014 14948 0.790  1494 878.3 308.8 44.10  2.20 220.3  1.20  99.7  44.7  1.00  0.00  0.06  0.00  0.00   0.0  0.00  0.00  0.00
 2019 355   186   186  26.5 1.156 143.7 0.527  0.68  35.2 1.151 0.107 1.258 18659   602   292  3392   765  2025 14975 0.790  1495 882.1 311.3 44.07  2.20 220.3  1.20  96.4  43.6  1.00  0.00  0.12  0.00  0.00   0.0  0.00  0.00  0.00
 2019 356   187   187  25.5 1.159 144.0 0.523  1.08  60.2 1.140 0.106 1.246 18716   603   292  3399   759  2037 15025 0.790  1497 886.2 313.8 44.06  2.20 220.2  1.20  93.0  40.2  1.00  0.00  0.18  0.00  0.00   0.0  0.00  0.00  0.00
 2019 357   188   188  26.4 1.162 144.4 0.522  0.46  24.5 1.135 0.105 1.240 18735   604   291  3405   754  2048 15039 0.790  1503 889.4 316.2 44.12  2.20 220.2  1.20  89.8  40.0  1.00  0.00  0.23  0.00  0.00   0.0  0.00  0.00  0.00
 2019 358   189   189  26.7 1.165 144.8 0.518  0.27  14.2 1.123 0.104 1.228 18744   605   291  3412   748  2059 15042 0.790  1504 893.3 318.7 44.07  2.20 220.2  1.20  86.6  38.1  1.00  0.00  0.29  0.00  0.00   0.0  0.00  0.00  0.00
 2019 359   190   190  26.6 1.167 145.1 0.514  0.55  28.8 1.111 0.103 1.215 18768   606   290  3417   741  2070 15061 0.790  1504 897.8 321.2 44.01  2.20 220.2  1.20  83.6  37.3  1.00  0.01  0.34  0.00  0.00   0.0  0.00  0.00  0.00
 2019 360   191   191  26.9 1.170 145.4 0.512  0.46  25.0 1.105 0.103 1.208 18790   607   290  3425   737  2082 15075 0.790  1506 901.3 323.7 43.97  2.20 220.2  1.20 105.6  45.4  1.00  0.07  0.38  0.00  0.00   0.0  0.00  0.00  0.00
 2019 361   192   192  26.7 1.173 145.9 0.512  0.57  28.3 1.103 0.102 1.205 18814   608   289  3435   735  2093 15089 0.790  1507 904.2 326.1 43.88  2.20 220.2  1.20 101.1  47.2  1.00  0.00  0.04  0.00  0.00   0.0  0.00  0.00  0.00
 2019 362   193   193  26.5 1.177 146.4 0.509  0.47  22.9 1.096 0.102 1.198 18832   609   289  3442   730  2104 15101 0.789  1509 907.8 328.6 43.84  2.20 220.2  1.20  97.6  47.3  1.00  0.00  0.03  0.00  0.00   0.0  0.00  0.00  0.00
 2019 363   194   194  25.7 1.180 146.8 0.508  0.44  22.9 1.091 0.101 1.192 18852   610   288  3451   727  2115 15113 0.789  1510 910.9 331.0 43.75  2.20 220.1  1.20  94.3  43.4  1.00  0.00  0.10  0.00  0.00   0.0  0.00  0.00  0.00
 2019 364   195   195  26.1 1.184 147.2 0.507  0.49  25.9 1.087 0.101 1.188 18875   611   288  3463   726  2126 15125 0.789  1511 913.7 333.5 43.65  2.20 220.1  1.20  91.9  41.4  1.00  0.00  0.15  0.00  0.00   0.0  0.00  0.00  0.00
 2019 365   196   196  26.4 1.187 147.6 0.505  0.51  23.1 1.083 0.101 1.183 18893   612   287  3470   722  2137 15135 0.789  1513 917.1 335.9 43.59  2.20 220.0  1.20  88.8  46.0  1.00  0.00  0.19  0.00  0.00   0.0  0.00  0.00  0.00
 2020   1   197   197  26.2 1.189 148.0 0.503  0.61  31.2 1.074 0.100 1.174 18921   613   287  3477   716  2148 15158 0.789  1514 920.8 338.4 43.53  2.20 220.0  1.20  85.7  40.0  1.00  0.00  0.24  0.00  0.00   0.0  0.00  0.00  0.00
 2020   2   198   198  25.2 1.192 148.3 0.502  1.00  49.1 1.072 0.100 1.172 18966   614   286  3489   717  2158 15191 0.789  1516 923.5 340.8 43.44  2.20 219.9  1.20  82.7  41.2  1.00  0.00  0.29  0.00  0.00   0.0  0.00  0.00  0.00
 2020   3   199   199  23.6 1.195 148.5 0.503  0.86  44.9 1.075 0.100 1.176 19010   615   286  3501   717  2169 15223 0.788  1519 925.5 343.2 43.39  2.20 219.7  1.20  79.7  38.5  1.00  0.01  0.34  0.00  0.00   0.0  0.09  0.03  0.00
 2020   4   200   200  25.0 1.197 148.8 0.501  0.61  27.1 1.070 0.100 1.170 19031   616   285  3510   715  2180 15235 0.788  1522 928.5 345.7 43.37  2.20 219.7  1.20  77.6  42.4  1.00  0.08  0.39  0.00  0.00   0.0  0.00  0.00  0.00
 2020   5   201   201  25.0 1.200 149.0 0.500  0.87  39.8 1.067 0.099 1.166 19067   617   284  3518   711  2190 15265 0.788  1524 931.2 348.1 43.31  2.20 219.6  1.20 101.4  54.4  1.00  0.13  0.42  0.00  0.00   0.0  0.00  0.00  0.00
 2020   6   202   202  26.2 1.204 149.5 0.498  1.03  50.2 1.061 0.099 1.160 19115   618   284  3525   707  2201 15306 0.788  1527 933.8 350.5 43.30  2.20 219.6  1.20  97.1  47.5  1.00  0.00  0.06  0.00  0.00   0.0  0.00  0.00  0.00
 2020   7   203   203  27.6 1.207 150.0 0.495  0.53  26.6 1.053 0.098 1.150 19139   619   283  3531   701  2212 15325 0.788  1531 936.9 352.9 43.35  2.20 219.6  1.20  92.7  42.4  1.00  0.00  0.04  0.00  0.00   0.0  0.00  0.00  0.00
 2020   8   204   204  28.1 1.210 150.4 0.492  0.63  29.8 1.043 0.097 1.140 19164   620   282  3538   696  2222 15344 0.788  1533 940.2 355.3 43.32  2.20 219.7  1.20  89.3  43.3  1.00  0.00  0.11  0.00  0.00   0.0  0.00  0.00  0.00
 2020   9   205   205  28.3 1.213 150.9 0.491  0.42  17.0 1.038 0.096 1.134 19175   621   281  3544   690  2233 15350 0.788  1534 943.2 357.7 43.30  2.20 219.7  1.20  86.2  46.9  1.00  0.00  0.17  0.00  0.00   0.0  0.00  0.00  0.00
 2020  10   206   206  28.0 1.216 151.3 0.488  0.42  19.6 1.030 0.096 1.126 19192   622   281  3551   687  2243 15361 0.788  1535 946.1 360.1 43.22  2.20 219.8  1.20  83.2  39.5  1.00  0.00  0.22  0.00  0.00   0.0  0.00  0.00  0.00
 2020  11   207   207  27.8 1.218 151.7 0.486  0.69  33.1 1.023 0.095 1.119 19222   623   280  3559   683  2253 15383 0.788  1536 949.2 362.5 43.16  2.20 219.8  1.20  80.1  38.9  1.00  0.00  0.27  0.00  0.00   0.0  0.00  0.00  0.00
 2020  12   208   208  28.5 1.220 152.0 0.485  0.59  26.4 1.020 0.095 1.115 19244   624   279  3568   680  2264 15397 0.788  1538 951.9 364.9 43.12  2.20 219.9  1.20  77.1  38.8  1.00  0.00  0.32  0.00  0.00   0.0  0.00  0.00  0.00
 2020  13   209   209  29.8 1.223 152.4 0.483  0.30  12.8 1.015 0.094 1.109 19252   624   279  3573   674  2274 15401 0.788  1540 954.9 367.2 43.09  2.20 220.0  1.20  74.3  35.6  1.00  0.06  0.37  0.00  0.00   0.0  0.00  0.00  0.00
 2020  14   210   210  29.0 1.224 152.7 0.482  0.31  13.4 1.012 0.094 1.105 19263   625   278  3582   672  2284 15404 0.787  1540 956.9 369.6 43.00  2.20 220.1  1.20  96.8  47.1  1.00  0.13  0.42  0.00  0.00   0.0  0.00  0.00  0.00
 2020  15   211   211  29.1 1.227 153.2 0.479  0.62  29.0 1.002 0.093 1.095 19289   626   277  3587   666  2295 15425 0.788  1540 960.1 372.0 42.94  2.20 220.2  1.20  92.1  43.2  1.00  0.00  0.08  0.00  0.00   0.0  0.00  0.00  0.00
 2020  16   212   212  27.5 1.230 153.7 0.474  0.68  27.3 0.989 0.091 1.080 19309   627   276  3587   655  2305 15446 0.788  1542 964.0 374.3 43.00  2.20 220.2  1.20  88.9  51.5  1.00  0.00  0.07  0.00  0.00   0.0  0.00  0.00  0.00
 2020  17   213   213  26.6 1.233 154.1 0.470  0.44  20.0 0.977 0.091 1.068 19327   628   275  3592   649  2315 15459 0.788  1545 967.2 376.7 43.00  2.20 220.2  1.20  86.6  45.2  1.00  0.00  0.13  0.00  0.00   0.0  0.00  0.00  0.00
 2020  18   214   214  26.8 1.236 154.5 0.462  0.87  36.1 0.954 0.088 1.043 19355   629   274  3588   634  2325 15493 0.788  1546 973.1 379.0 43.08  2.20 220.2  1.20  86.9  49.8  1.00  0.00  0.17  0.00  0.00   0.0  0.00  0.00  0.00
 2020  19   215   215  25.8 1.239 154.8 0.454  0.83  35.7 0.932 0.087 1.019 19386   630   274  3587   622  2335 15525 0.789  1549 978.8 381.3 43.20  2.20 220.1  1.20  83.7  46.7  1.00  0.00  0.16  0.00  0.00   0.0  0.00  0.00  0.00
 2020  20   216   216  26.7 1.242 155.2 0.452  0.65  27.5 0.925 0.086 1.011 19409   631   273  3594   618  2345 15542 0.789  1553 982.1 383.7 43.20  2.20 220.1  1.20  80.6  45.2  1.00  0.00  0.21  0.00  0.00   0.0  0.00  0.00  0.00
 2020  21   217   217  28.1 1.245 155.6 0.445  0.38  16.7 0.906 0.084     1 19420   632   273  3591   604  2355 15556 0.789  1554 988.1 386.0 43.28  2.20 220.2  1.20  77.7  38.8  1.00  0.00  0.27  0.00  0.00   0.0  0.00  0.00  0.00
 2020  22   218   218  28.2 1.247 155.9 0.438  0.22   9.3 0.887 0.083 0.970 19422   633   272  3589   591  2365 15561 0.789  1556 993.7 388.3 43.35  2.20 220.3  1.20  74.7  38.6  1.00  0.00  0.32  0.00  0.00   0.0  0.00  0.00  0.00
 2020  23   219   219  27.8 1.250 156.2 0.435  0.60  26.5 0.878 0.082 0.960 19445   634   271  3593   585  2375 15580 0.789  1556 997.4 390.6 43.31  2.20 220.3  1.20  71.8  38.1  1.00  0.06  0.37  0.00  0.00   0.0  0.00  0.00  0.00
 2020  24   220   220  27.5 1.252 156.5 0.427  0.26  11.8 0.856 0.080 0.936 19450   635   271  3590   571  2384 15590 0.789  1558  1003 392.9 43.41  2.20 220.4  1.20  69.1  35.2  1.00  0.13  0.42  0.00  0.00   0.0  0.00  0.00  0.00
 2020  25   221   221  26.8 1.253 156.7 0.422  0.11   5.3 0.845 0.078 0.923 19451   634   270  3590   561  2394 15592 0.790  1559  1008 395.2 43.43  2.20 220.4  1.20  93.3  46.1  1.00  0.20  0.46  0.00  0.00   0.0  0.00  0.00  0.00
 2020  26   222   222  25.3 1.257 157.1 0.420  0.14   7.2 0.838 0.078 0.916 19455   631   269  3593   557  2404 15593 0.790  1559  1010 397.5 43.40  2.20 220.3  1.20  88.1  41.8  1.00  0.00  0.10  0.00  0.00   0.0  0.00  0.00  0.00
 2020  27   223   223  26.0 1.260 157.5 0.415  0.27  11.5 0.825 0.076 0.901 19461   632   268  3593   547  2414 15600 0.790  1559  1014 399.8 43.40  2.20 220.3  1.20  84.8  47.5  1.00  0.00  0.10  0.00  0.00   0.0  0.00  0.00  0.00
 2020  28   224   224  26.5 1.264 157.9 0.411  0.47  20.7 0.814 0.076 0.890 19478   633   267  3598   541  2423 15613 0.790  1560  1017 402.1 43.36  2.20 220.3  1.20  81.7  44.0  1.00  0.00  0.16  0.00  0.00   0.0  0.00  0.00  0.00
 2020  29   225   225  27.1 1.267 158.2 0.408  0.38  16.4 0.807 0.075 0.882 19491   634   267  3605   538  2433 15620 0.790  1561  1019 404.4 43.31  2.20 220.3  1.20  78.6  41.8  1.00  0.00  0.21  0.00  0.00   0.0  0.00  0.00  0.00
 2020  30   226   226  27.2 1.269 158.6 0.406  0.14   6.3 0.801 0.074 0.875 19494   632   266  3607   532  2442 15621 0.790  1562  1022 406.6 43.31  2.20 220.3  1.20  77.2  39.4  1.00  0.00  0.27  0.00  0.00   0.0  0.00  0.00  0.00
 2020  31   227   227  27.4 1.272 158.9 0.400  0.29  11.4 0.785 0.073 0.858 19500   633   265  3607   522  2452 15628 0.790  1562  1027 408.9 43.31  2.20 220.3  1.20  75.2  43.8  1.00  0.00  0.29  0.00  0.00   0.0  0.00  0.00  0.00
 2020  32   228   228  27.0 1.274 159.2 0.394  0.27  12.1 0.769 0.072 0.841 19508   634   264  3608   513  2461 15636 0.790  1563  1031 411.1 43.31  2.20 220.3  1.20  72.3  37.4  1.00  0.00  0.32  0.00  0.00   0.0  0.00  0.00  0.00
 2020  33   229   229  26.5 1.276 159.5 0.390  0.48  19.3 0.761 0.071 0.831 19523   635   264  3613   508  2471 15646 0.790  1564  1034 413.4 43.27  2.20 220.3  1.20  69.6  41.7  1.00  0.05  0.37  0.00  0.00   0.0  0.00  0.00  0.00
 2020  34   230   230  26.8 1.279 159.7 0.384  0.54  21.6 0.744 0.069 0.814 19538   636   263  3611   495  2480 15665 0.790  1565  1039 415.6 43.33  2.20 220.3  1.20  67.2  40.4  1.00  0.12  0.42  0.00  0.00   0.0  0.00  0.00  0.00
 2020  35   231   231  26.9 1.281 160.0 0.377  0.53  20.5 0.729 0.068 0.797 19554   636   262  3611   485  2489 15680 0.790  1566  1043 417.9 43.38  2.20 220.3  1.20  90.9  56.0  1.00  0.18  0.46  0.00  0.00   0.0  0.00  0.00  0.00
 2020  36   232   232  27.1 1.284 160.4 0.375  0.63  21.8 0.722 0.067 0.789 19571   637   261  3616   480  2499 15693 0.790  1568  1046 420.1 43.36  2.20 220.3  1.20  86.9  59.5  1.00  0.00  0.11  0.00  0.00   0.0  0.00  0.00  0.00
 2020  37   233   233  27.5 1.287 160.8 0.369  0.51  18.6 0.709 0.066 0.775 19586   638   260  3618   472  2508 15707 0.790  1569  1050 422.3 43.38  2.20 220.4  1.20  82.5  53.2  1.00  0.00  0.09  0.00  0.00   0.0  0.00  0.00  0.00
 2020  38   234   234  27.2 1.290 161.2 0.366  0.52  21.5 0.701 0.065 0.766 19605   639   260  3623   467  2517 15722 0.790  1571  1052 424.5 43.35  2.20 220.4  1.20  81.7  46.6  1.00  0.00  0.15  0.00  0.00   0.0  0.00  0.00  0.00
 2020  39   235   235  28.4 1.293 161.6 0.364  0.20   8.1 0.696 0.065 0.761 19609   638   259  3627   463  2526 15723 0.790  1572  1055 426.7 43.34  2.20 220.5  1.20  79.0  42.1  1.00  0.00  0.17  0.00  0.00   0.0  0.00  0.00  0.00
 2020  40   236   236  28.4 1.296 162.0 0.361  0.36  11.3 0.688 0.064 0.752 19616   639   258  3632   458  2535 15726 0.790  1572  1058 428.9 43.29  2.20 220.5  1.20  76.3  55.4  1.00  0.00  0.21  0.00  0.00   0.0  0.00  0.00  0.00
 2020  41   237   237  28.4 1.298 162.3 0.357  0.55  20.2 0.680 0.063 0.743 19634   640   257  3638   453  2544 15739 0.790  1573  1060 431.1 43.23  2.20 220.6  1.20  73.5  46.3  1.00  0.00  0.26  0.00  0.00   0.0  0.00  0.00  0.00
 2020  42   238   238  28.9 1.300 162.7 0.354  0.36  12.8 0.672 0.063 0.734 19642   641   257  3642   448  2553 15743 0.790  1574  1064 433.3 43.21  2.20 220.7  1.20  72.5  47.2  1.00  0.00  0.31  0.00  0.00   0.0  0.00  0.00  0.00
 2020  43   239   239  28.0 1.302 163.0 0.349  0.67  22.4 0.661 0.061 0.723 19660   642   256  3643   439  2562 15761 0.790  1574  1067 435.5 43.21  2.20 220.8  1.20  70.0  49.4  1.00  0.00  0.32  0.00  0.00   0.0  0.00  0.00  0.00
 2020  44   240   240  27.8 1.305 163.3 0.343  0.46  16.2 0.646 0.060 0.706 19672   642   255  3645   431  2571 15772 0.790  1576  1072 437.7 43.25  2.20 220.8  1.20  67.4  45.7  1.00  0.06  0.37  0.00  0.00   0.0  0.00  0.00  0.00
 2020  45   241   241  28.5 1.307 163.6 0.337  0.13   5.2 0.632 0.059 0.691 19672   643   254  3643   420  2580 15775 0.790  1577  1076 439.8 43.29  2.20 220.9  1.20  64.8  37.4  1.00  0.12  0.41  0.00  0.00   0.0  0.00  0.00  0.00
 2020  46   242   242  28.4 1.308 163.8 0.331  0.20   7.3 0.618 0.057 0.675 19675   644   254  3644   410  2589 15778 0.790  1577  1080 442.0 43.30  2.20 221.0  1.20  87.9  53.8  1.00  0.19  0.46  0.00  0.00   0.0  0.00  0.00  0.00
 2020  47   243   243  28.8 1.311 164.3 0.329  0.18   5.8 0.614 0.057 0.671 19677   641   253  3646   407  2598 15779 0.790  1578  1082 444.2 43.28  2.20 221.1  1.20  83.2  55.9  1.00  0.00  0.12  0.00  0.00   0.0  0.00  0.00  0.00
 2020  48   244   244  29.3 1.314 164.7 0.326  0.24   7.4 0.607 0.056 0.663 19682   640   252  3650   403  2607 15780 0.790  1578  1084 446.3 43.24  2.20 221.2  1.20  80.2  54.4  1.00  0.00  0.12  0.00  0.00   0.0  0.00  0.00  0.00
 2020  49   245   245  29.1 1.317 165.1 0.324  0.52  16.1 0.603 0.056 0.659 19695   641   251  3657   401  2616 15787 0.790  1578  1086 448.4 43.15  2.20 221.3  1.20  77.5  56.2  1.00  0.00  0.17  0.00  0.00   0.0  0.00  0.00  0.00
 2020  50   246   246  29.2 1.319 165.5 0.321  0.32  10.5 0.596 0.055 0.651 19703   641   250  3660   394  2624 15793 0.790  1579  1088 450.6 43.13  2.20 221.3  1.20  74.8  49.6  1.00  0.00  0.22  0.00  0.00   0.0  0.00  0.00  0.00
 2020  51   247   247  29.9 1.321 165.9 0.315  0.11   3.4 0.582 0.054 0.636 19702   639   249  3658   386  2633 15794 0.790  1579  1092 452.7 43.17  2.20 221.5  1.20  72.5  49.2  1.00  0.00  0.27  0.00  0.00   0.0  0.00  0.00  0.00
 2020  52   248   248  30.2 1.323 166.2 0.310  0.09   2.7 0.571 0.053 0.624 19700   635   248  3656   380  2642 15796 0.791  1579  1095 454.8 43.20  2.20 221.6  1.20  70.1  50.1  1.00  0.00  0.31  0.00  0.00   0.0  0.00  0.00  0.00
 2020  53   249   249  31.3 1.325 166.6 0.305  0.04   1.1 0.560 0.052 0.612 19697   631   248  3653   371  2650 15797 0.791  1580  1099 456.9 43.24  2.20 221.8  1.20  67.5  42.4  1.00  0.02  0.35  0.00  0.00   0.0  0.00  0.00  0.00
 2020  54   250   250  31.1 1.327 166.9 0.300  0.04   0.0 0.550 0.051 0.600 19693   625   247  3648   364  2659 15798 0.792  1580  1102 459.0 43.30  2.20 221.9  1.20  65.7  42.3  1.00  0.09  0.39  0.00  0.00   0.0  0.00  0.00  0.00
 2020  55   251   251  30.5 1.328 167.2 0.295  0.05   1.4 0.538 0.050 0.588 19690   620   246  3645   357  2667 15799 0.792  1580  1105 461.1 43.34  2.20 222.1  1.20  64.1  44.5  1.00  0.13  0.42  0.00  0.00   0.0  0.00  0.00  0.00
 2020  56   252   252  29.4 1.330 167.4 0.292  0.22   6.2 0.531 0.049 0.580 19693   620   245  3647   351  2676 15801 0.792  1580  1108 463.2 43.32  2.20 222.2  1.20  62.5  49.7  1.00  0.17  0.45  0.00  0.00   0.0  0.00  0.00  0.00
 2020  57   253   253  29.8 1.332 167.7 0.289  0.12   3.2 0.525 0.048 0.573 19693   615   244  3647   347  2684 15802 0.792  1580  1110 465.3 43.33  2.20 222.3  1.20  86.1  69.6  1.00  0.21  0.47  0.00  0.00   0.0  0.00  0.00  0.00
 2020  58   254   254  30.0 1.334 168.1 0.287  0.29   8.3 0.521 0.048 0.569 19699   616   243  3652   343  2693 15803 0.792  1580  1112 467.3 43.27  2.20 222.4  1.20  81.2  59.3  1.00  0.00  0.13  0.00  0.00   0.0  0.00  0.00  0.00
 2020  59   255   255  30.3 1.337 168.6 0.282  0.07   2.0 0.510 0.047 0.557 19697   613   242  3650   336  2701 15804 0.792  1580  1115 469.4 43.29  2.20 222.5  1.20  78.3  52.9  1.00  0.00  0.12  0.00  0.00   0.0  0.00  0.00  0.00
 2020  60   256   256  32.2 1.339 169.0 0.277  0.07   0.0 0.499 0.046 0.545 19693   607   242  3646   330  2710 15806 0.793  1580  1117 471.5 43.34  2.20 222.7  1.20  75.6  48.1  1.00  0.00  0.18  0.00  0.00   0.0  0.00  0.00  0.00
 2020  61   257   257  30.8 1.341 169.4 0.272  0.33   9.0 0.489 0.045 0.534 19699   608   241  3648   323  2718 15809 0.793  1581  1120 473.5 43.32  2.20 222.8  1.20  73.1  55.2  1.00  0.00  0.22  0.00  0.00   0.0  0.00  0.00  0.00
 2020  62   258   258  30.8 1.343 169.7 0.269  0.68  17.9 0.482 0.044 0.526 19713   608   240  3653   318  2726 15820 0.793  1581  1123 475.5 43.28  2.20 222.9  1.20  72.3  58.8  1.00  0.00  0.27  0.00  0.00   0.0  0.00  0.00  0.00
 2020  63   259   259  30.8 1.345 170.1 0.265  0.54  15.0 0.474 0.044 0.518 19725   609   239  3657   313  2734 15829 0.793  1582  1125 477.5 43.26  2.20 223.1  1.20  70.1  52.8  1.00  0.00  0.28  0.00  0.00   0.0  0.00  0.00  0.00
 2020  64   260   260  30.8 1.347 170.4 0.260  0.20   6.1 0.463 0.043 0.506 19728   610   239  3659   306  2743 15831 0.793  1583  1129 479.5 43.27  2.20 223.3  1.20  67.5  45.2  1.00  0.00  0.32  0.00  0.00   0.0  0.00  0.00  0.00
 2020  65   261   261  31.3 1.349 170.7 0.255  0.04   1.2 0.454 0.042 0.495 19725   605   238  3655   299  2751 15832 0.793  1583  1132 481.5 43.31  2.20 223.4  1.20  65.1  44.9  1.00  0.05  0.36  0.00  0.00   0.0  0.00  0.00  0.00
 2020  66   262   262  30.5 1.350 171.0 0.248  0.35   8.8 0.438 0.040 0.478 19729   606   237  3654   289  2759 15838 0.793  1583  1136 483.4 43.33  2.20 223.6  1.20  63.0  52.6  1.00  0.11  0.41  0.00  0.00   0.0  0.00  0.00  0.00
 2020  67   263   263  30.8 1.352 171.3 0.243  0.44  11.7 0.428 0.039 0.468 19737   607   236  3655   281  2767 15846 0.793  1584  1139 485.4 43.33  2.20 223.6  1.20  61.5  49.3  1.00  0.16  0.44  0.00  0.00   0.0  0.00  0.00  0.00
 2020  68   264   264  30.6 1.353 171.6 0.237  0.35   9.0 0.417 0.038 0.455 19743   608   235  3658   275  2775 15850 0.793  1585  1141 487.4 43.33  2.20 223.8  1.20  84.4  69.6  1.00  0.20  0.47  0.00  0.00   0.0  0.00  0.00  0.00
 2020  69   265   265  31.4 1.356 172.0 0.235  0.06   1.7 0.412 0.038 0.450 19742   602   235  3656   271  2783 15851 0.794  1585  1143 489.3 43.35  2.20 223.9  1.20  78.4  57.3  1.00  0.00  0.14  0.00  0.00   0.0  0.00  0.00  0.00
 2020  70   266   266  30.6 1.358 172.4 0.234  0.08   1.9 0.411 0.038 0.449 19742   594   234  3656   270  2791 15852 0.794  1585  1145 491.2 43.36  2.20 224.1  1.20  75.7  60.6  1.00  0.00  0.15  0.00  0.00   0.0  0.00  0.00  0.00
 2020  71   267   267  31.1 1.360 172.8 0.233  0.50  11.6 0.409 0.038 0.446 19751   595   233  3663   269  2799 15855 0.794  1585  1146 493.1 43.28  2.20 224.2  1.20  73.3  65.9  1.00  0.00  0.20  0.00  0.00   0.0  0.00  0.00  0.00
 2020  72   268   268  30.6 1.362 173.2 0.232  0.81  18.5 0.405 0.037 0.443 19767   596   233  3670   267  2807 15865 0.794  1586  1148 495.0 43.20  2.20 224.4  1.20  71.4  69.5  1.00  0.00  0.24  0.00  0.00   0.0  0.00  0.00  0.00
 2020  73   269   269  29.3 1.364 173.5 0.229  0.86  20.4 0.400 0.037 0.436 19785   596   232  3675   263  2815 15879 0.794  1586  1150 497.0 43.17  2.20 224.5  1.20  69.3  68.4  1.00  0.00  0.27  0.00  0.00   0.0  0.00  0.00  0.00
 2020  74   270   270  28.9 1.366 173.8 0.225  0.58  12.7 0.392 0.036 0.428 19794   597   231  3678   258  2823 15885 0.794  1588  1152 499.0 43.18  2.20 224.6  1.20  67.4  72.7  1.00  0.00  0.31  0.00  0.00   0.0  0.00  0.00  0.00
 2020  75   271   271  29.3 1.368 174.1 0.222  0.05   1.0 0.386 0.035 0.421 19792   591   230  3675   254  2831 15886 0.794  1588  1155 500.9 43.22  2.20 224.7  1.20  65.4  62.5  1.00  0.02  0.34  0.00  0.00   0.0  0.00  0.00  0.00
 2020  76   272   272  30.3 1.370 174.4 0.221  0.01   0.2 0.385 0.035 0.420 19790   582   229  3673   253  2838 15887 0.795  1589  1156 502.9 43.25  2.20 224.9  1.20  64.0  61.0  1.00  0.07  0.38  0.00  0.00   0.0  0.00  0.00  0.00
 2020  77   273   273  30.9 1.372 174.7 0.221  0.21   5.0 0.384 0.035 0.419 19793   578   229  3676   252  2846 15888 0.795  1589  1157 504.8 43.22  2.20 225.0  1.20  62.6  53.6  1.00  0.10  0.40  0.00  0.00   0.0  0.00  0.00  0.00
 2020  78   274   274  31.3 1.373 175.0 0.220  0.37   8.3 0.382 0.035 0.416 19799   577   228  3681   250  2854 15890 0.795  1589  1158 506.8 43.16  2.20 225.2  1.20  61.4  56.9  1.00  0.13  0.42  0.00  0.00   0.0  0.00  0.00  0.00
 2020  79   275   275  31.3 1.375 175.2 0.219  0.26   6.0 0.380 0.035 0.414 19803   575   227  3685   249  2862 15891 0.795  1589  1160 508.7 43.12  2.20 225.3  1.20  82.6  74.1  1.00  0.16  0.44  0.00  0.00   0.0  0.00  0.00  0.00
 2020  80   276   276  30.2 1.377 175.6 0.215  0.68  16.3 0.373 0.034 0.407 19816   576   226  3689   245  2869 15901 0.795  1589  1162 510.6 43.07  2.20 225.5  1.20  77.6  70.0  1.00  0.00  0.14  0.00  0.00   0.0  0.00  0.00  0.00
 2020  81   277   277  31.5 1.380 176.0 0.214  0.30   6.6 0.370 0.034 0.404 19820   575   225  3693   241  2877 15902 0.795  1590  1163 512.5 43.06  2.20 225.5  1.20  72.2  63.6  1.00  0.00  0.15  0.00  0.00   0.0  0.00  0.00  0.00
 2020  82   278   278  30.5 1.382 176.4 0.209  0.65  14.5 0.362 0.033 0.394 19831   576   224  3696   235  2884 15911 0.795  1590  1166 514.3 43.03  2.20 225.6  1.20  69.8  67.9  1.00  0.00  0.21  0.00  0.00   0.0  0.00  0.00  0.00
 2020  83   279   279  30.7 1.384 176.7 0.203  0.95  20.1 0.350 0.032 0.382 19848   576   224  3698   229  2892 15926 0.795  1591  1168 516.3 43.03  2.20 225.8  1.20  75.3  77.8  1.00  0.00  0.26  0.00  0.00   0.0  0.00  0.00  0.00
 2020  84   280   280  28.7 1.386 177.1 0.201  1.39  30.0 0.345 0.032 0.376 19875   577   223  3703   226  2900 15949 0.795  1593  1170 518.2 43.01  2.20 225.8  1.20  72.2  79.2  1.00  0.00  0.16  0.00  0.00   0.0  0.00  0.00  0.00
 2020  85   281   281  29.9 1.389 177.4 0.198  1.12  22.6 0.340 0.031 0.371 19894   578   222  3706   221  2907 15966 0.795  1595  1172 520.0 43.03  2.20 225.9  1.20  69.8  80.5  1.00  0.00  0.19  0.00  0.00   0.0  0.00  0.00  0.00
 2020  86   282   282  30.1 1.391 177.8 0.194  1.09  23.6 0.331 0.030 0.362 19915   579   221  3710   217  2914 15984 0.795  1597  1174 521.9 43.03  2.20 226.0  1.20  67.6  71.2  1.00  0.00  0.24  0.00  0.00   0.0  0.00  0.00  0.00
 2020  87   283   283  31.5 1.393 178.1 0.193  0.64  13.2 0.330 0.030 0.360 19926   579   221  3718   217  2922 15988 0.795  1598  1175 523.8 42.99  2.20 226.2  1.20  65.3  65.1  1.00  0.00  0.28  0.00  0.00   0.0  0.00  0.00  0.00
 2020  88   284   284  31.3 1.395 178.4 0.193  0.67  13.9 0.330 0.030 0.360 19938   580   220  3727   217  2929 15992 0.794  1599  1177 525.7 42.90  2.20 226.4  1.20  63.2  65.0  1.00  0.00  0.32  0.00  0.00   0.0  0.00  0.00  0.00
 2020  89   285   285  31.7 1.396 178.7 0.194  0.34   6.7 0.332 0.030 0.362 19943   577   219  3731   217  2937 15993 0.794  1599  1178 527.6 42.86  2.20 226.6  1.20  61.2  63.2  1.00  0.03  0.35  0.00  0.00   0.0  0.00  0.00  0.00
 2020  90   286   286  31.8 1.398 179.0 0.193  0.75  15.1 0.330 0.030 0.360 19956   578   218  3738   215  2944 16000 0.794  1599  1179 529.4 42.79  2.20 226.7  1.20  59.3  63.3  1.00  0.08  0.39  0.00  0.00   0.0  0.00  0.00  0.00
 2020  91   287   287  30.8 1.399 179.3 0.190  0.80  15.4 0.323 0.029 0.353 19968   579   217  3740   210  2951 16011 0.794  1600  1181 531.3 42.78  2.20 226.8  1.20  76.7  89.2  1.00  0.13  0.42  0.00  0.00   0.0  0.00  0.00  0.00
 2020  92   288   288  30.0 1.402 179.6 0.185  1.12  21.7 0.315 0.029 0.344 19987   579   217  3744   206  2959 16026 0.794  1601  1183 533.1 42.77  2.20 226.9  1.20  72.2  86.6  1.00  0.00  0.17  0.00  0.00   0.0  0.00  0.00  0.00
 2020  93   289   289  30.6 1.404 180.0 0.183  0.87  19.0 0.310 0.028 0.338 20005   580   216  3747   201  2966 16042 0.794  1603  1185 535.0 42.77  2.20 227.0  1.20  66.8  66.0  1.00  0.00  0.17  0.00  0.00   0.0  0.00  0.00  0.00
 2020  94   290   290  31.2 1.406 180.3 0.180  0.79  14.7 0.305 0.028 0.332 20016   581   215  3752   198  2973 16049 0.794  1604  1186 536.8 42.76  2.20 227.1  1.20  64.6  73.3  1.00  0.00  0.25  0.00  0.00   0.0  0.00  0.00  0.00
 2020  95   291   291  28.9 1.408 180.6 0.178  1.78  34.9 0.302 0.028 0.330 20049   581   214  3759   197  2980 16076 0.794  1605  1187 538.6 42.70  2.20 227.2  1.20  62.5  76.6  1.00  0.00  0.29  0.00  0.00   0.0  0.00  0.00  0.00
 2020  96   292   292  30.6 1.410 180.9 0.176  0.88  18.3 0.299 0.027 0.326 20066   582   213  3764   195  2987 16088 0.794  1608  1189 540.4 42.70  2.20 227.3  1.20  60.5  64.0  1.00  0.00  0.32  0.00  0.00   0.0  0.00  0.00  0.00
 2020  97   293   293  30.7 1.412 181.2 0.176  1.11  21.1 0.297 0.027 0.325 20085   583   213  3773   195  2995 16100 0.794  1609  1190 542.3 42.65  2.20 227.5  1.20  60.9  73.8  1.00  0.04  0.36  0.00  0.00   0.0  0.00  0.00  0.00
 2020  98   294   294  30.8 1.414 181.5 0.175  0.54  10.7 0.295 0.027 0.322 20094   583   212  3778   192  3002 16104 0.794  1610  1192 544.1 42.62  2.20 227.6  1.20  58.8  62.6  1.00  0.02  0.35  0.00  0.00   0.0  0.00  0.00  0.00
 2020  99   295   295  29.6 1.416 181.8 0.171  1.17  20.8 0.289 0.026 0.315 20111   584   211  3781   188  3009 16118 0.794  1610  1194 545.9 42.59  2.20 227.7  1.20  57.0  75.8  1.00  0.08  0.39  0.00  0.00   0.0  0.00  0.00  0.00
 2020 100   296   296  29.5 1.417 182.0 0.170  1.21  20.5 0.287 0.026 0.313 20129   585   211  3787   187  3016 16131 0.794  1612  1195 547.7 42.56  2.20 227.8  1.20  55.3  77.8  1.00  0.13  0.42  0.00  0.00   0.0  0.00  0.00  0.00
 2020 101   297   297  30.4 1.419 182.3 0.167  0.76  14.0 0.281 0.025 0.306 20141   585   210  3790   182  3023 16141 0.794  1613  1197 549.5 42.56  2.20 227.9  1.20  75.8  93.4  1.00  0.17  0.45  0.00  0.00   0.0  0.00  0.00  0.00
 2020 102   298   298  28.5 1.421 182.6 0.166  1.72  29.2 0.279 0.025 0.304 20168   586   209  3798   182  3030 16161 0.794  1614  1198 551.2 42.50  2.20 227.9  1.20  73.0  99.9  1.00  0.00  0.15  0.00  0.00   0.0  0.00  0.00  0.00
 2020 103   299   299  30.7 1.424 183.0 0.165  0.61  11.7 0.277 0.025 0.302 20179   587   208  3802   179  3037 16169 0.794  1616  1199 553.0 42.50  2.20 228.0  1.20  67.9  75.9  1.00  0.00  0.15  0.00  0.00   0.0  0.00  0.00  0.00
 2020 104   300   300  31.5 1.426 183.3 0.162  0.57   9.8 0.273 0.025 0.297 20187   587   207  3809   177  3044 16171 0.794  1617  1201 554.8 42.45  2.20 228.1  1.20  63.0  76.9  1.00  0.00  0.19  0.00  0.00   0.0  0.00  0.00  0.00
 2020 105   301   301  31.9 1.428 183.6 0.162  0.31   5.4 0.272 0.025 0.297 20191   584   207  3812   177  3051 16172 0.794  1617  1201 556.5 42.42  2.20 228.3  1.20  60.9  69.2  1.00  0.00  0.26  0.00  0.00   0.0  0.00  0.00  0.00
 2020 106   302   302  31.9 1.430 183.9 0.161  0.61   9.8 0.271 0.025 0.295 20198   585   206  3819   176  3058 16174 0.793  1617  1203 558.3 42.35  2.20 228.4  1.20  58.9  75.7  1.00  0.00  0.30  0.00  0.00   0.0  0.00  0.00  0.00
 2020 107   303   303  31.5 1.432 184.2 0.161  0.35   5.6 0.270 0.025 0.295 20202   581   205  3822   177  3064 16175 0.794  1617  1204 560.1 42.32  2.20 228.6  1.20  57.1  74.8  1.00  0.00  0.33  0.00  0.00   0.0  0.00  0.00  0.00
 2020 108   304   304  30.9 1.433 184.5 0.162  0.82  14.3 0.272 0.025 0.297 20215   581   204  3829   177  3071 16181 0.793  1618  1204 561.8 42.24  2.20 228.7  1.20  55.4  71.1  1.00  0.05  0.36  0.00  0.00   0.0  0.00  0.00  0.00
 2020 109   305   305  31.0 1.435 184.8 0.161  0.88  12.7 0.271 0.025 0.295 20225   582   204  3836   176  3078 16185 0.793  1618  1206 563.5 42.18  2.20 228.9  1.20  53.9  84.2  1.00  0.09  0.39  0.00  0.00   0.0  0.00  0.00  0.00
 2020 110   306   306  30.0 1.437 185.0 0.161  0.87  13.7 0.270 0.024 0.295 20237   583   203  3841   174  3085 16193 0.793  1619  1206 565.3 42.13  2.20 228.9  1.20  53.0  77.8  1.00  0.13  0.42  0.00  0.00   0.0  0.00  0.00  0.00
 2020 111   307   307  30.0 1.438 185.2 0.158  1.00  16.3 0.265 0.024 0.289 20252   583   202  3845   170  3091 16204 0.793  1619  1208 567.0 42.11  2.20 229.0  1.20  52.1  76.4  1.00  0.15  0.43  0.00  0.00   0.0  0.00  0.00  0.00
 2020 112   308   308  31.3 1.440 185.5 0.155  0.54   8.6 0.258 0.023 0.282 20258   584   201  3850   168  3098 16206 0.793  1620  1210 568.7 42.09  2.20 229.1  1.20  51.1  68.7  1.00  0.17  0.45  0.00  0.00   0.0  0.00  0.00  0.00
 2020 113   309   309  30.7 1.441 185.7 0.154  0.78  11.4 0.258 0.023 0.281 20267   585   201  3855   166  3105 16211 0.793  1621  1211 570.4 42.04  2.20 229.2  1.20  50.3  77.8  1.00  0.20  0.46  0.00  0.00   0.0  0.00  0.00  0.00
 2020 114   310   310  30.1 1.443 185.9 0.152  0.97  15.4 0.254 0.023 0.276 20281   585   200  3860   163  3112 16221 0.793  1621  1212 572.1 42.00  2.20 229.2  1.20  49.4  73.5  1.00  0.22  0.48  0.00  0.00   0.0  0.00  0.00  0.00
 2020 115   311   311  30.4 1.444 186.1 0.151  0.94  14.8 0.251 0.023 0.274 20294   586   199  3866   163  3118 16228 0.793  1622  1213 573.8 41.95  2.20 229.4  1.20  71.1  99.9  1.00  0.24  0.49  0.00  0.00   0.0  0.00  0.00  0.00
 2020 116   312   312  30.5 1.446 186.5 0.150  1.11  16.3 0.251 0.023 0.274 20308   586   198  3874   163  3125 16236 0.792  1623  1213 575.5 41.89  2.20 229.5  1.20  72.8  99.9  1.00  0.00  0.17  0.00  0.00   0.0  0.00  0.00  0.00
 2020 117   313   313  29.8 1.449 186.8 0.151  1.18  18.3 0.252 0.023 0.275 20325   587   197  3880   162  3131 16248 0.792  1624  1214 577.2 41.84  2.20 229.5  1.20  73.2  99.9  1.00  0.00  0.15  0.00  0.00   0.0  0.00  0.00  0.00
 2020 118   314   314  29.5 1.451 187.2 0.151  1.52  21.6 0.252 0.023 0.275 20345   588   197  3888   163  3138 16260 0.792  1625  1214 578.9 41.79  2.20 229.6  1.20  69.3  99.9  1.00  0.00  0.13  0.00  0.00   0.0  0.00  0.00  0.00
 2020 119   315   315  30.4 1.454 187.5 0.151  0.92  14.4 0.251 0.023 0.274 20359   588   196  3895   163  3144 16268 0.792  1626  1215 580.5 41.74  2.20 229.7  1.20  64.9  94.0  1.00  0.00  0.14  0.00  0.00   0.0  0.00  0.00  0.00
 2020 120   316   316  31.6 1.456 187.9 0.149  0.89  13.3 0.247 0.022 0.270 20370   589   195  3900   160  3151 16275 0.792  1627  1217 582.2 41.71  2.20 229.8  1.20  65.0  94.0  1.00  0.00  0.19  0.00  0.00   0.0  0.00  0.00  0.00
 2020 121   317   317  29.9 1.458 188.2 0.147  1.35  19.6 0.244 0.022 0.266 20387   589   194  3904   157  3157 16289 0.792  1627  1218 583.9 41.69  2.20 229.9  1.20  73.9  99.9  1.00  0.00  0.16  0.00  0.00   0.0  0.00  0.00  0.00
 2020 122   318   318  29.9 1.461 188.6 0.146  1.18  17.8 0.242 0.022 0.264 20404   590   194  3911   157  3164 16299 0.792  1629  1219 585.5 41.65  2.20 230.0  1.20  79.0  99.9  1.00  0.00  0.13  0.00  0.00   0.0  0.00  0.00  0.00
 2020 123   319   319  29.8 1.464 188.9 0.146  1.17  17.3 0.243 0.022 0.265 20419   591   193  3918   157  3170 16308 0.792  1630  1220 587.2 41.60  2.20 230.1  1.20  74.5  99.9  1.00  0.00  0.10  0.00  0.00   0.0  0.00  0.00  0.00
 2020 124   320   320  28.6 1.466 189.3 0.147  1.55  22.3 0.244 0.022 0.266 20440   591   192  3925   157  3177 16322 0.792  1631  1220 588.8 41.55  2.20 230.1  1.20  76.2  99.9  1.00  0.00  0.08  0.00  0.00   0.0  0.00  0.00  0.00
 2020 125   321   321  29.0 1.469 189.6 0.147  1.44  22.3 0.244 0.022 0.266 20462   592   192  3933   158  3183 16337 0.791  1632  1221 590.4 41.50  2.20 230.1  1.20  75.3  99.9  1.00  0.00  0.06  0.00  0.00   0.0  0.00  0.00  0.00
 2020 126   322   322  30.1 1.472 190.0 0.147  1.07  16.2 0.245 0.022 0.267 20476   592   191  3940   158  3189 16345 0.791  1634  1222 592.1 41.47  2.20 230.3  1.20  70.8  99.9  1.00  0.00  0.06  0.00  0.00   0.0  0.00  0.00  0.00
 2020 127   323   323  30.6 1.475 190.3 0.147  1.08  16.2 0.244 0.022 0.266 20491   593   190  3946   157  3196 16354 0.791  1635  1223 593.7 41.42  2.20 230.4  1.20  68.7  99.9  1.00  0.00  0.11  0.00  0.00   0.0  0.00  0.00  0.00
 2020 128   324   324  29.9 1.477 190.7 0.146  1.38  18.8 0.244 0.022 0.266 20507   594   190  3953   157  3202 16365 0.791  1635  1224 595.3 41.37  2.20 230.5  1.20  66.9  99.9  1.00  0.00  0.15  0.00  0.00   0.0  0.00  0.00  0.00
 2020 129   325   325  29.3 1.480 191.0 0.146  1.62  21.1 0.242 0.022 0.264 20526   594   189  3959   156  3208 16379 0.791  1636  1225 596.9 41.34  2.20 230.5  1.20  65.1  99.9  1.00  0.00  0.18  0.00  0.00   0.0  0.00  0.00  0.00
 2020 130   326   326  28.5 1.482 191.3 0.144  1.48  23.7 0.238 0.021 0.260 20550   595   188  3963   154  3214 16399 0.791  1638  1226 598.5 41.33  2.20 230.5  1.20  70.3  99.9  1.00  0.00  0.21  0.00  0.00   0.0  0.00  0.00  0.00
 2020 131   327   327  29.5 1.485 191.6 0.143  1.80  24.7 0.238 0.021 0.259 20572   595   188  3970   154  3221 16414 0.791  1640  1227 600.1 41.31  2.20 230.6  1.20  71.7  99.9  1.00  0.00  0.11  0.00  0.00   0.0  0.00  0.00  0.00
 2020 132   328   328  29.1 1.488 192.0 0.144  1.67  22.9 0.238 0.021 0.260 20593   596   187  3977   154  3227 16430 0.791  1641  1228 601.7 41.28  2.20 230.6  1.20  68.4  99.9  1.00  0.00  0.09  0.00  0.00   0.0  0.00  0.00  0.00
 2020 133   329   329  29.4 1.491 192.3 0.143  1.41  19.3 0.238 0.021 0.260 20611   597   186  3983   154  3233 16442 0.791  1643  1228 603.3 41.25  2.20 230.6  1.20  66.3  99.9  1.00  0.00  0.12  0.00  0.00   0.0  0.00  0.00  0.00
 2020 134   330   330  28.5 1.493 192.6 0.144  1.77  25.4 0.239 0.021 0.260 20636   597   186  3990   154  3239 16460 0.791  1644  1229 604.9 41.20  2.20 230.6  1.20  66.2  99.9  1.00  0.00  0.15  0.00  0.00   0.0  0.00  0.00  0.00
 2020 135   331   331  29.8 1.496 192.9 0.143  1.18  17.2 0.238 0.021 0.259 20651   598   185  3996   153  3245 16470 0.791  1646  1230 606.5 41.19  2.20 230.7  1.20  64.2  99.9  1.00  0.00  0.15  0.00  0.00   0.0  0.00  0.00  0.00
 2020 136   332   332  29.6 1.498 193.2 0.141  1.20  16.4 0.234 0.021 0.255 20665   598   184  4000   151  3251 16481 0.791  1647  1231 608.1 41.17  2.20 230.8  1.20  72.1  99.9  1.00  0.00  0.19  0.00  0.00   0.0  0.00  0.00  0.00
 2020 137   333   333  30.0 1.501 193.6 0.141  1.26  17.1 0.234 0.021 0.255 20681   599   184  4007   151  3257 16490 0.790  1648  1232 609.6 41.13  2.20 230.9  1.20  68.9  99.9  1.00  0.00  0.09  0.00  0.00   0.0  0.00  0.00  0.00
 2020 138   334   334  30.9 1.504 193.9 0.141  1.05  14.3 0.234 0.021 0.255 20694   599   183  4014   151  3263 16497 0.790  1649  1233 611.2 41.08  2.20 231.0  1.20  64.7  99.9  1.00  0.00  0.10  0.00  0.00   0.0  0.00  0.00  0.00
 2020 139   335   335  30.4 1.506 194.2 0.142  1.30  16.0 0.235 0.021 0.256 20708   600   182  4020   151  3269 16505 0.790  1650  1234 612.7 41.03  2.20 231.1  1.20  64.4  99.9  1.00  0.00  0.15  0.00  0.00   0.0  0.00  0.00  0.00
 2020 140   336   336  29.4 1.508 194.6 0.141  1.52  20.2 0.235 0.021 0.256 20727   601   182  4027   151  3275 16519 0.790  1651  1234 614.3 40.99  2.20 231.1  1.20  62.7  99.9  1.00  0.00  0.15  0.00  0.00   0.0  0.00  0.00  0.00
 2020 141   337   337  29.4 1.511 194.9 0.142  1.67  21.5 0.235 0.021 0.256 20747   601   181  4034   151  3281 16532 0.790  1652  1235 615.8 40.95  2.20 231.1  1.20  68.4  99.9  1.00  0.00  0.18  0.00  0.00   0.0  0.00  0.00  0.00
 2020 142   338   338  29.4 1.514 195.2 0.142  1.36  17.2 0.235 0.021 0.256 20763   602   180  4040   151  3287 16543 0.790  1653  1236 617.4 40.92  2.20 231.2  1.20 100.1  99.9  1.00  0.00  0.10  0.00  0.00   0.0  0.00  0.00  0.00
 2020 143   339   339  29.8 1.517 195.6 0.142  1.22  15.1 0.235 0.021 0.256 20777   602   180  4047   151  3293 16550 0.790  1654  1236 618.9 40.88  2.20 231.3  1.20 105.0  99.9  1.00  0.00  0.00  0.00  0.00   0.0  0.00  0.00  0.00
 2020 144   340   340  30.4 1.520 195.9 0.142  1.23  16.6 0.235 0.021 0.256 20793   603   179  4053   151  3299 16560 0.790  1655  1237 620.4 40.83  2.20 231.3  1.20 104.4  99.9  1.00  0.00  0.00  0.00  0.00   0.0  0.00  0.00  0.00
 2020 145   341   341  28.2 1.523 196.3 0.142  1.95  24.8 0.236 0.021 0.257 20816   603   178  4060   151  3305 16577 0.790  1656  1238 622.0 40.79  2.20 231.3  1.20 111.7  99.9  1.00  0.00  0.00  0.00  0.00   0.0  0.00  0.00  0.00
[...]
 2020 124   320   320  28.6 1.466 189.3 0.147  1.55  22.3 0.244 0.022 0.266 20440   591   192  3925   157  3177 16322 0.792  1631  1220 588.8 41.55  2.20 230.1  1.20  76.2  99.9  1.00  0.00  0.08  0.00  0.00   0.0  0.00  0.00  0.00
 2020 125   321   321  29.0 1.469 189.6 0.147  1.44  22.3 0.244 0.022 0.266 20462   592   192  3933   158  3183 16337 0.791  1632  1221 590.4 41.50  2.20 230.1  1.20  75.3  99.9  1.00  0.00  0.06  0.00  0.00   0.0  0.00  0.00  0.00
 2020 126   322   322  30.1 1.472 190.0 0.147  1.07  16.2 0.245 0.022 0.267 20476   592   191  3940   158  3189 16345 0.791  1634  1222 592.1 41.47  2.20 230.3  1.20  70.8  99.9  1.00  0.00  0.06  0.00  0.00   0.0  0.00  0.00  0.00
 2020 127   323   323  30.6 1.475 190.3 0.147  1.08  16.2 0.244 0.022 0.266 20491   593   190  3946   157  3196 16354 0.791  1635  1223 593.7 41.42  2.20 230.4  1.20  68.7  99.9  1.00  0.00  0.11  0.00  0.00   0.0  0.00  0.00  0.00
 2020 128   324   324  29.9 1.477 190.7 0.146  1.38  18.8 0.244 0.022 0.266 20507   594   190  3953   157  3202 16365 0.791  1635  1224 595.3 41.37  2.20 230.5  1.20  66.9  99.9  1.00  0.00  0.15  0.00  0.00   0.0  0.00  0.00  0.00
 2020 129   325   325  29.3 1.480 191.0 0.146  1.62  21.1 0.242 0.022 0.264 20526   594   189  3959   156  3208 16379 0.791  1636  1225 596.9 41.34  2.20 230.5  1.20  65.1  99.9  1.00  0.00  0.18  0.00  0.00   0.0  0.00  0.00  0.00
 2020 130   326   326  28.5 1.482 191.3 0.144  1.48  23.7 0.238 0.021 0.260 20550   595   188  3963   154  3214 16399 0.791  1638  1226 598.5 41.33  2.20 230.5  1.20  70.3  99.9  1.00  0.00  0.21  0.00  0.00   0.0  0.00  0.00  0.00
 2020 131   327   327  29.5 1.485 191.6 0.143  1.80  24.7 0.238 0.021 0.259 20572   595   188  3970   154  3221 16414 0.791  1640  1227 600.1 41.31  2.20 230.6  1.20  71.7  99.9  1.00  0.00  0.11  0.00  0.00   0.0  0.00  0.00  0.00
 2020 132   328   328  29.1 1.488 192.0 0.144  1.67  22.9 0.238 0.021 0.260 20593   596   187  3977   154  3227 16430 0.791  1641  1228 601.7 41.28  2.20 230.6  1.20  68.4  99.9  1.00  0.00  0.09  0.00  0.00   0.0  0.00  0.00  0.00
 2020 133   329   329  29.4 1.491 192.3 0.143  1.41  19.3 0.238 0.021 0.260 20611   597   186  3983   154  3233 16442 0.791  1643  1228 603.3 41.25  2.20 230.6  1.20  66.3  99.9  1.00  0.00  0.12  0.00  0.00   0.0  0.00  0.00  0.00
 2020 134   330   330  28.5 1.493 192.6 0.144  1.77  25.4 0.239 0.021 0.260 20636   597   186  3990   154  3239 16460 0.791  1644  1229 604.9 41.20  2.20 230.6  1.20  66.2  99.9  1.00  0.00  0.15  0.00  0.00   0.0  0.00  0.00  0.00
 2020 135   331   331  29.8 1.496 192.9 0.143  1.18  17.2 0.238 0.021 0.259 20651   598   185  3996   153  3245 16470 0.791  1646  1230 606.5 41.19  2.20 230.7  1.20  64.2  99.9  1.00  0.00  0.15  0.00  0.00   0.0  0.00  0.00  0.00
 2020 136   332   332  29.6 1.498 193.2 0.141  1.20  16.4 0.234 0.021 0.255 20665   598   184  4000   151  3251 16481 0.791  1647  1231 608.1 41.17  2.20 230.8  1.20  72.1  99.9  1.00  0.00  0.19  0.00  0.00   0.0  0.00  0.00  0.00
 2020 137   333   333  30.0 1.501 193.6 0.141  1.26  17.1 0.234 0.021 0.255 20681   599   184  4007   151  3257 16490 0.790  1648  1232 609.6 41.13  2.20 230.9  1.20  68.9  99.9  1.00  0.00  0.09  0.00  0.00   0.0  0.00  0.00  0.00
 2020 138   334   334  30.9 1.504 193.9 0.141  1.05  14.3 0.234 0.021 0.255 20694   599   183  4014   151  3263 16497 0.790  1649  1233 611.2 41.08  2.20 231.0  1.20  64.7  99.9  1.00  0.00  0.10  0.00  0.00   0.0  0.00  0.00  0.00
 2020 139   335   335  30.4 1.506 194.2 0.142  1.30  16.0 0.235 0.021 0.256 20708   600   182  4020   151  3269 16505 0.790  1650  1234 612.7 41.03  2.20 231.1  1.20  64.4  99.9  1.00  0.00  0.15  0.00  0.00   0.0  0.00  0.00  0.00
 2020 140   336   336  29.4 1.508 194.6 0.141  1.52  20.2 0.235 0.021 0.256 20727   601   182  4027   151  3275 16519 0.790  1651  1234 614.3 40.99  2.20 231.1  1.20  62.7  99.9  1.00  0.00  0.15  0.00  0.00   0.0  0.00  0.00  0.00
 2020 141   337   337  29.4 1.511 194.9 0.142  1.67  21.5 0.235 0.021 0.256 20747   601   181  4034   151  3281 16532 0.790  1652  1235 615.8 40.95  2.20 231.1  1.20  68.4  99.9  1.00  0.00  0.18  0.00  0.00   0.0  0.00  0.00  0.00
 2020 142   338   338  29.4 1.514 195.2 0.142  1.36  17.2 0.235 0.021 0.256 20763   602   180  4040   151  3287 16543 0.790  1653  1236 617.4 40.92  2.20 231.2  1.20 100.1  99.9  1.00  0.00  0.10  0.00  0.00   0.0  0.00  0.00  0.00
 2020 143   339   339  29.8 1.517 195.6 0.142  1.22  15.1 0.235 0.021 0.256 20777   602   180  4047   151  3293 16550 0.790  1654  1236 618.9 40.88  2.20 231.3  1.20 105.0  99.9  1.00  0.00  0.00  0.00  0.00   0.0  0.00  0.00  0.00
 2020 144   340   340  30.4 1.520 195.9 0.142  1.23  16.6 0.235 0.021 0.256 20793   603   179  4053   151  3299 16560 0.790  1655  1237 620.4 40.83  2.20 231.3  1.20 104.4  99.9  1.00  0.00  0.00  0.00  0.00   0.0  0.00  0.00  0.00
 2020 145   341   341  28.2 1.523 196.3 0.142  1.95  24.8 0.236 0.021 0.257 20816   603   178  4060   151  3305 16577 0.790  1656  1238 622.0 40.79  2.20 231.3  1.20 111.7  99.9  1.00  0.00  0.00  0.00  0.00   0.0  0.00  0.00  0.00
 2020 146   342   342  28.1 1.526 196.6 0.141  1.73  22.4 0.234 0.021 0.255 20837   604   178  4066   151  3311 16593 0.789  1658  1239 623.5 40.78  2.20 231.2  1.20 108.3  99.9  1.00  0.00  0.00  0.00  0.00   0.0  0.00  0.00  0.00
 2020 147   343   343  30.4 1.529 197.0 0.141  1.28  17.1 0.233 0.021 0.254 20852   604   177  4071   150  3317 16604 0.789  1659  1239 625.0 40.76  2.20 231.3  1.20 104.7  99.9  1.00  0.00  0.00  0.00  0.00   0.0  0.00  0.00  0.00
 2020 148   344   344  29.5 1.532 197.3 0.140  1.51  18.6 0.232 0.021 0.253 20869   605   177  4078   150  3323 16614 0.789  1660  1240 626.5 40.72  2.20 231.4  1.20 101.3  99.9  1.00  0.00  0.00  0.00  0.00   0.0  0.00  0.00  0.00
 2020 149   345   345  28.3 1.535 197.7 0.140  1.83  25.8 0.232 0.021 0.253 20894   606   176  4083   149  3328 16635 0.789  1661  1242 628.0 40.69  2.20 231.3  1.20 124.4  99.9  1.00  0.00  0.00  0.00  0.00   0.0  0.00  0.00  0.00
 2020 150   346   346  28.6 1.539 198.0 0.140  1.75  23.6 0.231 0.021 0.252 20916   606   175  4089   149  3334 16652 0.789  1664  1242 629.5 40.68  2.20 231.3  1.20 130.6  99.9  1.00  0.00  0.00  0.00  0.00   0.0  0.00  0.00  0.00
 2020 151   347   347  29.2 1.542 198.4 0.140  1.52  19.3 0.232 0.021 0.253 20933   607   175  4096   149  3340 16663 0.789  1665  1243 631.0 40.66  2.20 231.3  1.20 128.4  99.9  1.00  0.00  0.00  0.00  0.00   0.0  0.00  0.00  0.00
 2020 152   348   348  30.0 1.545 198.7 0.141  1.45  19.2 0.234 0.021 0.255 20952   607   174  4103   150  3346 16675 0.789  1666  1243 632.5 40.61  2.20 231.4  1.20 125.9  99.9  1.00  0.00  0.00  0.00  0.00   0.0  0.00  0.00  0.00
 2020 153   349   349  26.3 1.548 199.0 0.143  2.45  28.9 0.237 0.021 0.258 20979   608   174  4111   152  3351 16694 0.789  1667  1244 634.0 40.56  2.20 231.2  1.20 176.8  99.9  1.00  0.00  0.00  0.00  0.00   0.0  0.00  0.00  0.00
 2020 154   350   350  28.0 1.552 199.3 0.143  1.94  27.6 0.237 0.021 0.259 21008   608   173  4119   154  3357 16716 0.789  1669  1244 635.4 40.53  2.20 231.1  1.20 177.3  99.9  1.00  0.00  0.00  0.00  0.00   0.0  0.00  0.00  0.00
 2020 155   351   351  29.0 1.555 199.7 0.144  1.90  26.8 0.239 0.021 0.261 21034   609   172  4125   154  3363 16736 0.789  1672  1245 636.9 40.52  2.20 231.1  1.20 173.7  99.9  1.00  0.00  0.00  0.00  0.00   0.0  0.00  0.00  0.00
 2020 156   352   352  28.2 1.558 200.0 0.144  1.49  19.8 0.240 0.022 0.261 21052   609   172  4132   154  3368 16748 0.789  1674  1245 638.4 40.50  2.20 231.0  1.20 160.0  99.9  1.00  0.00  0.00  0.00  0.00   0.0  0.00  0.00  0.00
 2020 157   353   353  29.1 1.561 200.3 0.143  1.49  21.2 0.238 0.021 0.259 21072   610   171  4138   154  3374 16763 0.789  1675  1247 639.8 40.48  2.20 231.1  1.20 156.4  99.9  1.00  0.00  0.00  0.00  0.00   0.0  0.00  0.00  0.00
 2020 158   354   354  27.6 1.565 200.6 0.144  1.79  21.3 0.240 0.022 0.262 21090   610   171  4145   155  3380 16774 0.789  1676  1247 641.3 40.44  2.20 230.9  1.20 155.8  99.9  1.00  0.00  0.00  0.00  0.00   0.0  0.00  0.00  0.00
 2020 159   355   355  28.0 1.568 200.9 0.145  1.64  23.1 0.242 0.022 0.263 21114   611   170  4151   155  3385 16792 0.789  1677  1248 642.7 40.41  2.20 230.9  1.20 151.8  99.9  1.00  0.00  0.00  0.00  0.00   0.0  0.00  0.00  0.00
 2020 160   356   356  27.9 1.571 201.2 0.144  1.76  22.9 0.239 0.022 0.261 21134   611   170  4157   155  3391 16808 0.789  1679  1249 644.2 40.40  2.20 230.8  1.20 167.7  99.9  1.00  0.00  0.00  0.00  0.00   0.0  0.00  0.00  0.00
 2020 161   357   357  28.0 1.575 201.6 0.144  1.55  20.5 0.240 0.022 0.261 21154   612   169  4162   154  3396 16822 0.788  1681  1250 645.6 40.38  2.20 230.7  1.20 158.7  99.9  1.00  0.00  0.00  0.00  0.00   0.0  0.00  0.00  0.00
 2020 162   358   358  28.2 1.578 201.9 0.145  1.63  21.5 0.240 0.022 0.262 21174   612   169  4169   155  3402 16836 0.788  1682  1251 647.1 40.35  2.20 230.7  1.20 155.6  99.9  1.00  0.00  0.00  0.00  0.00   0.0  0.00  0.00  0.00
 2020 163   359   359  26.5 1.582 202.1 0.145  2.03  24.9 0.241 0.022 0.263 21197   613   168  4176   156  3407 16853 0.788  1684  1251 648.5 40.32  2.20 230.4  1.20 152.3  99.9  1.00  0.00  0.00  0.00  0.00   0.0  0.00  0.00  0.00
 2020 164   360   360  27.2 1.585 202.4 0.147  1.99  26.1 0.245 0.022 0.267 21223   613   167  4184   158  3413 16872 0.788  1685  1251 649.9 40.28  2.20 230.3  1.20 150.3  99.9  1.00  0.00  0.00  0.00  0.00   0.0  0.00  0.00  0.00
 2020 165   361   361  27.3 1.589 202.7 0.149  1.96  24.9 0.248 0.022 0.270 21247   614   167  4192   160  3418 16888 0.788  1687  1251 651.3 40.25  2.20 230.2  1.20 181.6  99.9  1.00  0.00  0.00  0.00  0.00   0.0  0.00  0.00  0.00
 2020 166   362   362  27.9 1.592 203.0 0.149  1.86  24.7 0.248 0.022 0.271 21271   614   166  4198   160  3424 16906 0.788  1689  1252 652.8 40.22  2.20 230.1  1.20 163.0  99.9  1.00  0.00  0.00  0.00  0.00   0.0  0.00  0.00  0.00
 2020 167   363   363  29.2 1.596 203.4 0.149  1.71  22.4 0.249 0.022 0.271 21292   615   166  4203   159  3429 16923 0.788  1691  1253 654.2 40.22  2.20 230.2  1.20 158.6  99.9  1.00  0.00  0.00  0.00  0.00   0.0  0.00  0.00  0.00
 2020 168   364   364  28.6 1.599 203.7 0.147  1.69  24.2 0.245 0.022 0.267 21316   616   165  4208   158  3435 16943 0.788  1692  1254 655.6 40.22  2.20 230.1  1.20 154.9  99.9  1.00  0.00  0.00  0.00  0.00   0.0  0.00  0.00  0.00
 2020 169   365   365  28.5 1.602 204.0 0.146  1.43  16.7 0.242 0.022 0.264 21328   616   164  4212   156  3440 16952 0.788  1694  1255 657.0 40.23  2.20 230.1  1.20 155.2  99.9  1.00  0.00  0.00  0.00  0.00   0.0  0.00  0.00  0.00
 2020 170   366   366  27.0 1.606 204.3 0.146  1.98  26.0 0.243 0.022 0.264 21354   617   164  4218   156  3445 16972 0.788  1695  1255 658.4 40.19  2.20 230.0  1.20 155.6  99.9  1.00  0.00  0.00  0.00  0.00   0.0  0.00  0.00  0.00
 2020 171   367   367  28.0 1.609 204.6 0.146  1.88  25.9 0.243 0.022 0.265 21379   617   163  4224   157  3451 16992 0.788  1697  1256 659.8 40.18  2.20 230.0  1.20 152.8  99.9  1.00  0.00  0.00  0.00  0.00   0.0  0.00  0.00  0.00
 2020 172   368   368  28.2 1.613 204.9 0.145  1.81  25.3 0.242 0.022 0.263 21403   618   163  4229   156  3456 17011 0.788  1699  1257 661.2 40.18  2.20 229.9  1.20 150.8  99.9  1.00  0.00  0.00  0.00  0.00   0.0  0.00  0.00  0.00
 2020 173   369   369  27.6 1.616 205.2 0.146  2.22  25.7 0.242 0.022 0.264 21426   618   162  4236   157  3461 17027 0.788  1701  1257 662.5 40.16  2.20 229.8  1.20 150.4  99.9  1.00  0.00  0.00  0.00  0.00   0.0  0.00  0.00  0.00
 2020 174   370   370  26.6 1.619 205.4 0.147  2.10  28.3 0.244 0.022 0.266 21455   619   162  4244   159  3467 17050 0.788  1703  1258 663.9 40.12  2.20 229.6  1.20 153.5  99.9  1.00  0.00  0.00  0.00  0.00   0.0  0.00  0.00  0.00
 2020 175   371   371  27.5 1.623 205.7 0.148  2.00  28.0 0.247 0.022 0.269 21483   619   161  4250   159  3472 17072 0.788  1705  1258 665.3 40.12  2.20 229.5  1.20 149.7  99.9  1.00  0.00  0.00  0.00  0.00   0.0  0.00  0.00  0.00
 2020 176   372   372  26.8 1.627 206.0 0.149  2.07  26.0 0.249 0.022 0.271 21507   620   161  4257   161  3477 17089 0.788  1707  1259 666.7 40.10  2.20 229.4  1.20 149.3  99.9  1.00  0.00  0.00  0.00  0.00   0.0  0.00  0.00  0.00
 2020 177   373   373  27.2 1.630 206.3 0.151  1.75  24.5 0.252 0.023 0.275 21532   620   160  4265   163  3482 17107 0.788  1709  1259 668.0 40.07  2.20 229.3  1.20 145.6  99.9  1.00  0.00  0.00  0.00  0.00   0.0  0.00  0.00  0.00
 2020 178   374   374  26.5 1.634 206.5 0.152  2.41  31.0 0.254 0.023 0.277 21561   621   159  4272   164  3487 17130 0.788  1711  1259 669.4 40.04  2.20 229.2  1.20 143.8  99.9  1.00  0.00  0.00  0.00  0.00   0.0  0.00  0.00  0.00
 2020 179   375   375  27.4 1.638 206.8 0.153  2.15  28.5 0.255 0.023 0.278 21589   621   159  4278   165  3493 17152 0.788  1713  1260 670.7 40.04  2.20 229.1  1.20 141.8  99.9  1.00  0.00  0.00  0.00  0.00   0.0  0.00  0.00  0.00
 2020 180   376   376  26.6 1.641 207.1 0.153  2.23  30.3 0.256 0.023 0.279 21619   622   158  4285   166  3498 17175 0.788  1715  1260 672.0 40.03  2.20 228.9  1.20 148.7  99.9  1.00  0.00  0.00  0.00  0.00   0.0  0.00  0.00  0.00
 2020 181   377   377  26.0 1.645 207.3 0.154  2.47  28.6 0.258 0.023 0.281 21644   622   158  4292   167  3503 17195 0.788  1718  1260 673.3 40.02  2.20 228.8  1.20 148.4  99.9  1.00  0.00  0.00  0.00  0.00   0.0  0.00  0.00  0.00
 2020 182   378   378  27.2 1.649 207.6 0.155  1.98  24.4 0.258 0.023 0.282 21669   622   157  4298   167  3508 17213 0.788  1719  1261 674.5 40.01  2.20 228.7  1.20 150.2  99.9  1.00  0.00  0.00  0.00  0.00   0.0  0.00  0.00  0.00
 2020 183   379   379  28.1 1.652 207.9 0.155  1.80  24.4 0.259 0.023 0.282 21693   623   157  4304   168  3513 17232 0.788  1721  1261 675.8 40.00  2.20 228.7  1.20 146.9  99.9  1.00  0.00  0.00  0.00  0.00   0.0  0.00  0.00  0.00
 2020 184   380   380  28.5 1.656 208.2 0.155  1.85  25.2 0.259 0.023 0.283 21717   623   156  4309   168  3518 17252 0.788  1723  1262 677.1 39.99  2.20 228.7  1.20 143.5  99.9  1.00  0.00  0.00  0.00  0.00   0.0  0.00  0.00  0.00
 2020 185   381   381  26.7 1.659 208.4 0.155  2.29  29.1 0.260 0.023 0.283 21744   624   156  4315   168  3523 17273 0.788  1725  1262 678.5 39.98  2.20 228.5  1.20 161.4  99.9  1.00  0.00  0.00  0.00  0.00   0.0  0.00  0.00  0.00
 2020 186   382   382  25.2 1.663 208.7 0.156  2.59  32.8 0.260 0.024 0.284 21776   624   155  4322   169  3528 17299 0.788  1727  1263 679.8 39.97  2.20 228.3  1.20 162.6  99.9  1.00  0.00  0.00  0.00  0.00   0.0  0.00  0.00  0.00
 2020 187   383   383  26.8 1.667 208.9 0.155  1.99  25.1 0.260 0.023 0.283 21800   625   155  4327   168  3533 17318 0.788  1730  1264 681.1 39.98  2.20 228.2  1.20 161.6  99.9  1.00  0.00  0.00  0.00  0.00   0.0  0.00  0.00  0.00
 2020 188   384   384  27.3 1.670 209.2 0.156  2.02  27.8 0.260 0.024 0.284 21828   625   154  4332   169  3538 17341 0.788  1732  1264 682.3 39.97  2.20 228.2  1.20 158.5  99.9  1.00  0.00  0.00  0.00  0.00   0.0  0.00  0.00  0.00
 2020 189   385   385  26.6 1.674 209.5 0.156  2.23  30.2 0.261 0.024 0.284 21857   626   154  4338   169  3543 17365 0.788  1734  1265 683.6 39.97  2.20 228.0  1.20 158.5  99.9  1.00  0.00  0.00  0.00  0.00   0.0  0.00  0.00  0.00
 2020 190   386   386  27.0 1.677 209.7 0.156  2.09  28.5 0.260 0.024 0.284 21884   626   153  4344   169  3548 17387 0.788  1736  1265 684.8 39.98  2.20 228.0  1.20 155.0  99.9  1.00  0.00  0.00  0.00  0.00   0.0  0.00  0.00  0.00
 2020 191   387   387  27.0 1.681 210.0 0.155  2.07  27.1 0.260 0.024 0.283 21909   627   153  4349   169  3553 17408 0.788  1739  1266 686.0 39.98  2.20 227.9  1.20 151.7  99.9  1.00  0.00  0.00  0.00  0.00   0.0  0.00  0.00  0.00
 2020 192   388   388  24.8 1.685 210.2 0.156  2.69  35.9 0.261 0.024 0.284 21945   627   152  4355   169  3558 17438 0.788  1741  1267 687.3 39.97  2.20 227.6  1.20 190.7  99.9  1.00  0.00  0.00  0.00  0.00   0.0  0.01  0.00  0.00
 2020 193   389   389  25.5 1.689 210.4 0.156  2.42  31.0 0.262 0.024 0.285 21974   628   152  4361   170  3563 17461 0.788  1744  1267 688.5 39.98  2.20 227.5  1.20 179.8  99.9  1.00  0.00  0.00  0.00  0.00   0.0  0.00  0.00  0.00
 2020 194   390   390  26.5 1.693 210.7 0.156  2.37  31.1 0.260 0.024 0.284 22004   628   151  4366   170  3568 17487 0.788  1746  1268 689.6 40.00  2.20 227.4  1.20 162.7  99.9  1.00  0.00  0.00  0.00  0.00   0.0  0.00  0.00  0.00
 2020 195   391   391  26.8 1.697 210.9 0.155  2.25  28.8 0.260 0.024 0.284 22032   629   151  4371   169  3573 17510 0.788  1749  1269 690.8 40.01  2.20 227.3  1.20 156.0  99.9  1.00  0.00  0.00  0.00  0.00   0.0  0.00  0.00  0.00
 2020 196   392   392  25.5 1.700 211.2 0.156  2.75  35.0 0.261 0.024 0.285 22066   629   151  4377   170  3578 17538 0.788  1751  1269 691.9 40.01  2.20 227.1  1.20 161.9  99.9  1.00  0.00  0.00  0.00  0.00   0.0  0.00  0.00  0.00
 2020 197   393   393  25.8 1.704 211.4 0.156  2.40  30.3 0.261 0.024 0.284 22095   630   150  4382   170  3583 17563 0.788  1754  1270 693.1 40.02  2.20 227.0  1.20 156.9  99.9  1.00  0.00  0.00  0.00  0.00   0.0  0.00  0.00  0.00
 2020 198   394   394  26.5 1.708 211.7 0.155  2.20  26.3 0.259 0.024 0.282 22119   630   150  4386   169  3588 17583 0.788  1756  1271 694.2 40.04  2.20 226.9  1.20 158.9  99.9  1.00  0.00  0.00  0.00  0.00   0.0  0.00  0.00  0.00
 2020 199   395   395  26.0 1.712 211.9 0.155  2.40  29.0 0.259 0.024 0.283 22147   630   149  4392   169  3592 17606 0.789  1758  1271 695.3 40.03  2.20 226.7  1.20 157.6  99.9  1.00  0.00  0.00  0.00  0.00   0.0  0.00  0.00  0.00
 2020 200   396   396  26.5 1.716 212.1 0.155  2.17  29.3 0.260 0.024 0.283 22177   631   149  4397   169  3597 17631 0.789  1761  1272 696.5 40.04  2.20 226.6  1.20 167.6  99.9  1.00  0.00  0.00  0.00  0.00   0.0  0.00  0.00  0.00
 2020 201   397   397  26.3 1.719 212.4 0.155  2.36  28.0 0.258 0.024 0.282 22202   631   149  4402   169  3602 17652 0.789  1763  1272 697.6 40.05  2.20 226.5  1.20 169.9  99.9  1.00  0.00  0.00  0.00  0.00   0.0  0.00  0.00  0.00
 2020 202   398   398  25.8 1.723 212.6 0.154  2.31  28.6 0.258 0.023 0.281 22230   632   148  4407   168  3607 17675 0.789  1765  1273 698.8 40.05  2.20 226.4  1.20 166.9  99.9  1.00  0.00  0.00  0.00  0.00   0.0  0.00  0.00  0.00
 2020 203   399   399  26.5 1.727 212.8 0.154  2.32  28.2 0.258 0.024 0.282 22257   632   148  4413   169  3611 17697 0.789  1768  1274 699.9 40.06  2.20 226.3  1.20 158.6  99.9  1.00  0.00  0.00  0.00  0.00   0.0  0.00  0.00  0.00
 2020 204   400   400  27.0 1.731 213.1 0.155  1.81  23.8 0.259 0.024 0.282 22281   633   147  4417   169  3616 17717 0.789  1770  1274 701.1 40.06  2.20 226.3  1.20 158.8  99.9  1.00  0.00  0.00  0.00  0.00   0.0  0.00  0.00  0.00
 2020 205   401   401  25.2 1.735 213.3 0.154  2.45  34.1 0.257 0.023 0.281 22315   633   147  4423   168  3621 17746 0.789  1772  1275 702.2 40.06  2.20 226.1  1.20 155.5  99.9  1.00  0.00  0.00  0.00  0.00   0.0  0.00  0.00  0.00
 2020 206   402   402  26.2 1.739 213.6 0.154  2.39  30.4 0.257 0.023 0.280 22343   634   146  4427   168  3626 17769 0.789  1775  1275 703.4 40.08  2.20 226.0  1.20 152.6  99.9  1.00  0.00  0.00  0.00  0.00   0.0  0.00  0.00  0.00
 2020 207   403   403  25.8 1.742 213.8 0.154  2.62  30.0 0.257 0.024 0.281 22370   634   146  4433   169  3630 17791 0.789  1777  1276 704.5 40.08  2.20 225.8  1.20 150.8  99.9  1.00  0.00  0.00  0.00  0.00   0.0  0.00  0.00  0.00
 2020 208   404   404  26.8 1.746 214.0 0.154  2.15  26.6 0.258 0.023 0.281 22397   635   145  4438   168  3635 17814 0.789  1779  1276 705.6 40.09  2.20 225.8  1.20 149.0  99.9  1.00  0.00  0.00  0.00  0.00   0.0  0.00  0.00  0.00
 2020 209   405   405  25.0 1.750 214.2 0.153  2.40  27.7 0.256 0.023 0.280 22423   635   145  4442   167  3640 17836 0.789  1781  1277 706.7 40.11  2.20 225.7  1.20 147.8  99.9  1.00  0.00  0.00  0.00  0.00   0.0  0.00  0.00  0.00
