*SOIL WATER DAILY OUTPUT FILE

*DSSAT Cropping System Model Ver. 4.8.0.019 -develop  JAN 07, 2022 20:10:05

*RUN   1        : TMEB419                   CSYCA048 UYAB1901    5
 MODEL          : CSYCA048 - Cassava
 EXPERIMENT     : UYAB1901 CS UYT_GXE
 DATA PATH      :
 TREATMENT  5   : TMEB419                   CSYCA048
  
!                                                                                                 Soil water content (mm3/mm3) by soil depth (cm):
!                                                                                                 0-5    5-15   15-20   20-25   25-30   30-35   35-40   40-55   55-70  70-120
@YEAR DOY   DAS  SWTD  SWXD   ROFC   DRNC   PREC  IR#C  IRRC  DTWT    MWTD  TDFD  TDFC   ROFD    SW1D    SW2D    SW3D    SW4D    SW5D    SW6D    SW7D    SW8D    SW9D    SW10
 2019 168     0   386   158      0      0      0     0     0     0    0.00   0.0   0.0   0.00   0.330   0.335   0.320   0.320   0.310   0.330   0.330   0.320   0.320   0.320
 2019 169     1   385   157      0      0      0     0     0    60    0.00   0.0   0.0   0.00   0.304   0.333   0.319   0.320   0.310   0.330   0.330   0.320   0.320   0.320
 2019 170     2   389   161      0      0     10     0     0   120    0.00   0.0   0.0   0.03   0.345   0.347   0.342   0.333   0.318   0.333   0.331   0.318   0.319   0.318
 2019 171     3   386   158      0      0     11     0     0   120    0.00   0.0   0.0   0.00   0.321   0.334   0.332   0.331   0.319   0.336   0.333   0.319   0.317   0.316
 2019 172     4   380   152      0      0     11     0     0   120    0.00   0.0   0.0   0.00   0.297   0.324   0.318   0.319   0.309   0.328   0.327   0.317   0.318   0.317
 2019 173     5   382   154      0      0     17     0     0   120    0.00   0.0   0.0   0.00   0.341   0.331   0.319   0.318   0.308   0.327   0.325   0.315   0.316   0.315
 2019 174     6   377   149      0      0     17     0     0   120    0.00   0.0   0.0   0.00   0.312   0.326   0.314   0.314   0.304   0.323   0.321   0.312   0.313   0.313
 2019 175     7   386   158      0      0     30     0     0   120    0.00   0.0   0.0   0.29   0.348   0.359   0.353   0.340   0.320   0.333   0.328   0.310   0.311   0.312
 2019 176     8   381   153      0      0     30     0     0   120    0.00   0.0   0.0   0.00   0.313   0.334   0.326   0.322   0.310   0.329   0.327   0.317   0.318   0.315
 2019 177     9   378   150      0      0     31     0     0   120    0.00   0.0   0.0   0.00   0.313   0.328   0.317   0.318   0.308   0.328   0.324   0.315   0.316   0.313
 2019 178    10   376   148      0      0     31     0     0   120    0.00   0.0   0.0   0.00   0.288   0.326   0.316   0.318   0.308   0.328   0.324   0.315   0.316   0.313
 2019 179    11   375   147      0      0     31     0     0   120    0.00   0.0   0.0   0.00   0.266   0.325   0.316   0.317   0.307   0.328   0.323   0.315   0.316   0.313
 2019 180    12   374   146      0      0     31     0     0   120    0.00   0.0   0.0   0.00   0.247   0.323   0.315   0.317   0.307   0.328   0.323   0.315   0.316   0.313
 2019 181    13   380   152      0      0     39     0     0   120    0.00   0.0   0.0   0.00   0.334   0.336   0.321   0.320   0.307   0.327   0.323   0.315   0.316   0.313
 2019 182    14   379   151      0      0     43     0     0   120    0.00   0.0   0.0   0.00   0.342   0.335   0.327   0.323   0.310   0.328   0.323   0.312   0.313   0.311
 2019 183    15   374   146      0      0     43     0     0   120    0.00   0.0   0.0   0.00   0.310   0.326   0.316   0.316   0.306   0.326   0.326   0.311   0.311   0.309
 2019 184    16   375   147      0      0     45     0     0   120    0.00   0.0   0.0   0.00   0.317   0.333   0.316   0.316   0.306   0.326   0.326   0.311   0.311   0.309
 2019 185    17   393   165      3      0     71     0     0   120    0.00   0.0   0.0   3.04   0.349   0.359   0.353   0.354   0.348   0.361   0.362   0.328   0.321   0.311
 2019 186    18   399   171      4      0     81     0     0   120    0.00   0.0   0.0   0.24   0.348   0.359   0.352   0.353   0.348   0.361   0.361   0.336   0.331   0.320
 2019 187    19   394   166      4      0     82     0     0   120    0.00   0.0   0.0   0.00   0.319   0.337   0.340   0.343   0.337   0.357   0.358   0.330   0.330   0.323
 2019 188    20   400   172      4      0     92     0     0   120    0.00   0.0   0.0   0.07   0.350   0.353   0.353   0.351   0.339   0.357   0.357   0.327   0.328   0.323
 2019 189    21   396   168      4      1     94     0     0   119    0.00   0.0   0.0   0.00   0.334   0.339   0.342   0.344   0.335   0.355   0.355   0.326   0.326   0.323
 2019 190    22   391   163      4      3     94     0     0   120    0.00   0.0   0.0   0.00   0.313   0.329   0.325   0.330   0.324   0.347   0.349   0.324   0.325   0.322
 2019 191    23   386   158      4      4     96     0     0   120    0.00   0.0   0.0   0.00   0.311   0.321   0.315   0.319   0.313   0.337   0.340   0.322   0.322   0.321
 2019 192    24   384   156      4      4     98     0     0   120    0.00   0.0   0.0   0.00   0.321   0.321   0.310   0.315   0.307   0.330   0.333   0.320   0.320   0.320
 2019 193    25   397   169      5      4    117     0     0   120    0.00   0.0   0.0   1.16   0.351   0.359   0.352   0.353   0.345   0.351   0.344   0.321   0.321   0.321
 2019 194    26   386   158      5     11    117     0     0   120    0.00   0.0   0.0   0.00   0.314   0.333   0.324   0.326   0.317   0.333   0.332   0.319   0.319   0.319
 2019 195    27   398   170      6     11    135     0     0   120    0.00   0.0   0.0   1.19   0.349   0.358   0.352   0.353   0.347   0.361   0.358   0.324   0.322   0.320
 2019 196    28   401   173      6     11    143     0     0   120    0.00   0.0   0.0   0.06   0.350   0.357   0.352   0.353   0.347   0.361   0.361   0.330   0.327   0.322
 2019 197    29   395   167      6     13    143     0     0   120    0.00   0.0   0.0   0.00   0.317   0.335   0.337   0.341   0.335   0.356   0.357   0.328   0.327   0.322
 2019 198    30   390   162      6     14    145     0     0   120    0.00   0.0   0.0   0.00   0.315   0.326   0.321   0.326   0.321   0.345   0.348   0.325   0.325   0.322
 2019 199    31   383   155      6     17    145     0     0   120    0.00   0.0   0.0   0.00   0.297   0.318   0.315   0.317   0.309   0.331   0.333   0.320   0.320   0.321
 2019 200    32   392   164      6     17    158     0     0   120    0.00   0.0   0.0   0.13   0.353   0.351   0.344   0.333   0.317   0.334   0.333   0.319   0.321   0.319
 2019 201    33   388   160      6     17    159     0     0   120    0.00   0.0   0.0   0.00   0.324   0.334   0.333   0.332   0.319   0.336   0.334   0.319   0.320   0.320
 2019 202    34   382   154      6     17    159     0     0   120    0.00   0.0   0.0   0.00   0.303   0.324   0.317   0.318   0.307   0.327   0.327   0.318   0.318   0.319
 2019 203    35   381   153      6     17    161     0     0   120    0.00   0.0   0.0   0.00   0.306   0.322   0.314   0.315   0.305   0.325   0.326   0.317   0.318   0.319
 2019 204    36   379   151      6     17    161     0     0   120    0.00   0.0   0.0   0.00   0.291   0.316   0.310   0.311   0.302   0.323   0.324   0.317   0.318   0.318
 2019 205    37   377   149      6     17    161     0     0   120    0.00   0.0   0.0   0.00   0.268   0.311   0.306   0.308   0.299   0.320   0.322   0.316   0.318   0.318
 2019 206    38   381   153      6     17    168     0     0   120    0.00   0.0   0.0   0.00   0.334   0.327   0.302   0.304   0.296   0.318   0.321   0.316   0.318   0.318
 2019 207    39   377   149      6     17    169     0     0   120    0.00   0.0   0.0   0.00   0.318   0.322   0.296   0.299   0.291   0.314   0.317   0.314   0.317   0.317
 2019 208    40   374   146      6     17    169     0     0   120    0.00   0.0   0.0   0.00   0.288   0.316   0.292   0.296   0.288   0.311   0.315   0.313   0.317   0.317
 2019 209    41   372   144      6     17    169     0     0   120    0.00   0.0   0.0   0.00   0.261   0.310   0.287   0.292   0.285   0.308   0.313   0.312   0.317   0.317
 2019 210    42   369   141      6     17    169     0     0   120    0.00   0.0   0.0   0.00   0.239   0.304   0.283   0.288   0.281   0.305   0.311   0.312   0.317   0.317
 2019 211    43   366   138      6     17    169     0     0   120    0.00   0.0   0.0   0.00   0.223   0.297   0.278   0.284   0.277   0.302   0.308   0.311   0.317   0.317
 2019 212    44   363   135      6     17    169     0     0   120    0.00   0.0   0.0   0.00   0.207   0.290   0.273   0.279   0.273   0.299   0.306   0.309   0.317   0.317
 2019 213    45   368   140      6     17    176     0     0   120    0.00   0.0   0.0   0.00   0.321   0.291   0.267   0.274   0.269   0.295   0.303   0.308   0.316   0.317
 2019 214    46   370   142      6     17    183     0     0   120    0.00   0.0   0.0   0.00   0.354   0.321   0.262   0.268   0.265   0.290   0.299   0.306   0.315   0.316
 2019 215    47   367   139      6     17    183     0     0   120    0.00   0.0   0.0   0.00   0.321   0.319   0.258   0.263   0.261   0.285   0.294   0.303   0.314   0.315
 2019 216    48   363   135      6     17    183     0     0   120    0.00   0.0   0.0   0.00   0.290   0.310   0.255   0.260   0.259   0.281   0.291   0.302   0.314   0.315
 2019 217    49   376   148      7     17    201     0     0   120    0.00   0.0   0.0   0.66   0.353   0.357   0.343   0.307   0.256   0.276   0.286   0.299   0.313   0.315
 2019 218    50   380   152      7     17    209     0     0   120    0.00   0.0   0.0   0.06   0.354   0.357   0.351   0.345   0.309   0.274   0.282   0.297   0.311   0.314
 2019 219    51   383   155      7     17    216     0     0   120    0.00   0.0   0.0   0.03   0.356   0.356   0.352   0.353   0.336   0.327   0.279   0.294   0.310   0.313
 2019 220    52   380   152      7     17    216     0     0   120    0.00   0.0   0.0   0.00   0.329   0.337   0.338   0.342   0.332   0.342   0.306   0.292   0.309   0.312
 2019 221    53   377   149      7     17    217     0     0   120    0.00   0.0   0.0   0.00   0.320   0.328   0.322   0.327   0.321   0.340   0.327   0.290   0.308   0.312
 2019 222    54   372   144      7     17    217     0     0   120    0.00   0.0   0.0   0.00   0.304   0.318   0.314   0.316   0.308   0.328   0.325   0.293   0.307   0.311
 2019 223    55   375   147      7     17    223     0     0   120    0.00   0.0   0.0   0.00   0.356   0.330   0.316   0.316   0.302   0.323   0.321   0.290   0.305   0.310
 2019 224    56   371   143      7     17    224     0     0   120    0.00   0.0   0.0   0.00   0.331   0.328   0.315   0.313   0.296   0.318   0.317   0.288   0.304   0.310
 2019 225    57   369   141      7     17    225     0     0   120    0.00   0.0   0.0   0.00   0.327   0.327   0.307   0.306   0.290   0.313   0.312   0.285   0.302   0.309
 2019 226    58   364   136      7     17    225     0     0   120    0.00   0.0   0.0   0.00   0.293   0.319   0.301   0.301   0.285   0.309   0.309   0.283   0.302   0.309
 2019 227    59   362   134      7     17    227     0     0   120    0.00   0.0   0.0   0.00   0.300   0.311   0.295   0.295   0.281   0.304   0.306   0.281   0.301   0.309
 2019 228    60   360   132      7     17    229     0     0   120    0.00   0.0   0.0   0.00   0.298   0.303   0.289   0.290   0.276   0.300   0.302   0.279   0.300   0.309
 2019 229    61   356   128      7     17    229     0     0   120    0.00   0.0   0.0   0.00   0.267   0.295   0.283   0.285   0.271   0.296   0.299   0.277   0.299   0.309
 2019 230    62   375   147      9     17    254     0     0   120    0.00   0.0   0.0   1.94   0.359   0.359   0.351   0.348   0.314   0.308   0.294   0.275   0.297   0.308
 2019 231    63   373   145      9     17    255     0     0   120    0.00   0.0   0.0   0.00   0.340   0.340   0.342   0.342   0.324   0.331   0.300   0.272   0.296   0.308
 2019 232    64   368   140      9     17    255     0     0   120    0.00   0.0   0.0   0.00   0.318   0.327   0.320   0.321   0.309   0.325   0.325   0.277   0.294   0.307
 2019 233    65   384   156     11     17    277     0     0   120    0.00   0.0   0.0   1.93   0.358   0.359   0.351   0.352   0.346   0.360   0.361   0.296   0.292   0.307
 2019 234    66   382   154     11     17    279     0     0   120    0.00   0.0   0.0   0.00   0.340   0.340   0.342   0.344   0.336   0.356   0.356   0.312   0.291   0.306
 2019 235    67   397   169     13     17    299     0     0   120    0.00   0.0   0.0   1.87   0.359   0.360   0.352   0.353   0.347   0.360   0.361   0.340   0.323   0.311
 2019 236    68   394   166     13     17    300     0     0   120    0.00   0.0   0.0   0.00   0.338   0.340   0.342   0.344   0.337   0.357   0.357   0.331   0.328   0.321
 2019 237    69   393   165     13     17    304     0     0   120    0.00   0.0   0.0   0.00   0.350   0.336   0.333   0.335   0.328   0.349   0.351   0.326   0.327   0.323
 2019 238    70   385   157     13     22    304     0     0   120    0.00   0.0   0.0   0.00   0.323   0.326   0.317   0.318   0.310   0.331   0.333   0.319   0.320   0.321
 2019 239    71   385   157     13     22    308     0     0   120    0.00   0.0   0.0   0.00   0.346   0.330   0.317   0.316   0.306   0.326   0.327   0.318   0.319   0.320
 2019 240    72   384   156     13     22    311     0     0   120    0.00   0.0   0.0   0.00   0.350   0.333   0.320   0.317   0.306   0.321   0.323   0.315   0.317   0.320
 2019 241    73   384   156     13     22    315     0     0   120    0.00   0.0   0.0   0.00   0.353   0.333   0.323   0.319   0.306   0.320   0.318   0.311   0.314   0.319
 2019 242    74   380   152     13     22    315     0     0   120    0.00   0.0   0.0   0.00   0.330   0.329   0.317   0.316   0.305   0.315   0.313   0.309   0.312   0.318
 2019 243    75   400   172     17     22    343     0     0   120    0.00   0.0   0.0   3.91   0.359   0.359   0.351   0.352   0.346   0.360   0.360   0.328   0.322   0.321
 2019 244    76   387   159     17     30    343     0     0   120    0.00   0.0   0.0   0.00   0.326   0.333   0.323   0.324   0.316   0.335   0.336   0.319   0.320   0.320
 2019 245    77   384   156     17     30    344     0     0   120    0.00   0.0   0.0   0.00   0.322   0.327   0.315   0.315   0.307   0.328   0.329   0.319   0.318   0.319
 2019 246    78   384   156     17     30    348     0     0   120    0.00   0.0   0.0   0.00   0.348   0.331   0.317   0.314   0.303   0.322   0.325   0.316   0.315   0.319
 2019 247    79   393   165     17     30    362     0     0   120    0.00   0.0   0.0   0.60   0.358   0.359   0.351   0.352   0.333   0.341   0.334   0.318   0.313   0.318
 2019 248    80   418   190     39     40    423     0     0   113    0.00   0.0   0.0  21.71   0.358   0.359   0.351   0.351   0.346   0.359   0.360   0.345   0.346   0.347
 2019 249    81   405   177     39     49    423     0     0   114    0.00   0.0   0.0   0.00   0.332   0.337   0.338   0.341   0.334   0.355   0.355   0.332   0.337   0.336
 2019 250    82   401   173     39     55    429     0     0   116    0.00   0.0   0.0   0.00   0.358   0.340   0.338   0.337   0.328   0.349   0.350   0.326   0.330   0.330
 2019 251    83   394   166     39     59    430     0     0   117    0.00   0.0   0.0   0.00   0.337   0.333   0.327   0.329   0.320   0.342   0.343   0.323   0.325   0.326
 2019 252    84   397   169     39     61    439     0     0   118    0.00   0.0   0.0   0.05   0.359   0.351   0.348   0.340   0.325   0.342   0.341   0.322   0.323   0.323
 2019 253    85   416   188     51     69    483     0     0   115    0.00   0.0   0.0  11.84   0.359   0.359   0.351   0.352   0.346   0.359   0.360   0.345   0.346   0.344
 2019 254    86   414   186     51     78    494     0     0   114    0.00   0.0   0.0   0.36   0.359   0.359   0.351   0.352   0.346   0.359   0.360   0.343   0.344   0.338
 2019 255    87   404   176     51     85    495     0     0   115    0.00   0.0   0.0   0.00   0.333   0.338   0.339   0.341   0.335   0.355   0.355   0.332   0.336   0.333
 2019 256    88   398   170     51     90    498     0     0   117    0.00   0.0   0.0   0.00   0.347   0.334   0.330   0.332   0.325   0.347   0.349   0.326   0.329   0.328
 2019 257    89   395   167     51     93    503     0     0   118    0.00   0.0   0.0   0.00   0.359   0.339   0.333   0.331   0.321   0.341   0.343   0.323   0.325   0.325
 2019 258    90   390   162     51     95    504     0     0   119    0.00   0.0   0.0   0.00   0.339   0.332   0.326   0.326   0.316   0.336   0.337   0.320   0.321   0.323
 2019 259    91   410   182     58     99    539     0     0   117    0.00   0.0   0.0   6.60   0.360   0.360   0.352   0.352   0.346   0.360   0.361   0.345   0.343   0.330
 2019 260    92   402   174     58    104    539     0     0   117    0.00   0.0   0.0   0.00   0.333   0.339   0.340   0.343   0.336   0.356   0.356   0.333   0.336   0.330
 2019 261    93   419   191     78    122    599     0     0   111    0.00   0.0   0.0  20.27   0.359   0.359   0.350   0.351   0.345   0.359   0.360   0.345   0.345   0.347
 2019 262    94   409   181     78    131    602     0     0   114    0.00   0.0   0.0   0.00   0.354   0.344   0.346   0.346   0.338   0.357   0.357   0.333   0.337   0.336
 2019 263    95   389   161     78    146    602     0     0   118    0.00   0.0   0.0   0.00   0.324   0.327   0.320   0.321   0.312   0.333   0.334   0.321   0.323   0.325
 2019 264    96   391   163     78    148    609     0     0   119    0.00   0.0   0.0   0.00   0.358   0.341   0.333   0.326   0.313   0.331   0.331   0.318   0.319   0.322
 2019 265    97   387   159     78    148    611     0     0   120    0.00   0.0   0.0   0.00   0.340   0.332   0.326   0.324   0.312   0.330   0.329   0.317   0.316   0.321
 2019 266    98   390   162     78    148    618     0     0   120    0.00   0.0   0.0   0.00   0.359   0.345   0.339   0.332   0.316   0.333   0.330   0.317   0.314   0.320
 2019 267    99   402   174     80    149    638     0     0   119    0.00   0.0   0.0   1.98   0.359   0.359   0.350   0.351   0.345   0.359   0.360   0.333   0.326   0.323
 2019 268   100   408   180     81    153    654     0     0   118    0.00   0.0   0.0   0.99   0.358   0.358   0.350   0.351   0.345   0.359   0.359   0.344   0.340   0.329
 2019 269   101   407   179     81    157    661     0     0   117    0.01   0.0   0.0   0.02   0.359   0.355   0.350   0.351   0.345   0.359   0.360   0.334   0.336   0.329
 2019 270   102   414   186     83    164    681     0     0   115    0.01   0.0   0.0   2.05   0.360   0.359   0.351   0.352   0.346   0.360   0.360   0.345   0.346   0.337
 2019 271   103   414   186     84    172    694     0     0   115    0.01   0.0   0.0   0.57   0.358   0.358   0.350   0.351   0.345   0.359   0.360   0.344   0.345   0.337
 2019 272   104   406   178     84    178    697     0     0   116    0.01   0.0   0.0   0.00   0.354   0.342   0.345   0.345   0.337   0.356   0.356   0.332   0.336   0.332
 2019 273   105   398   170     84    183    699     0     0   117    0.01   0.0   0.0   0.00   0.343   0.335   0.332   0.335   0.327   0.349   0.350   0.326   0.329   0.328
 2019 274   106   403   175     84    187    712     0     0   118    0.02   0.0   0.0   0.30   0.359   0.359   0.351   0.351   0.346   0.359   0.355   0.325   0.326   0.325
 2019 275   107   409   181     85    191    727     0     0   117    0.02   0.0   0.0   0.91   0.360   0.360   0.351   0.352   0.346   0.360   0.360   0.345   0.338   0.329
 2019 276   108   420   192     91    204    761     0     0   112    0.02   0.0   0.0   6.65   0.360   0.359   0.351   0.352   0.346   0.360   0.360   0.345   0.346   0.347
 2019 277   109   413   185     91    214    768     0     0   114    0.02   0.0   0.0   0.01   0.359   0.358   0.351   0.352   0.346   0.359   0.360   0.336   0.339   0.337
 2019 278   110   391   163     91    231    768     0     0   118    0.02   0.0   0.0   0.00   0.328   0.334   0.323   0.324   0.316   0.335   0.336   0.322   0.324   0.325
 2019 279   111   393   165     91    233    776     0     0   119    0.03   0.0   0.0   0.00   0.360   0.343   0.336   0.330   0.317   0.335   0.334   0.320   0.321   0.322
 2019 280   112   400   172     92    234    789     0     0   119    0.03   0.0   0.0   0.34   0.361   0.360   0.352   0.353   0.347   0.360   0.354   0.323   0.322   0.322
 2019 281   113   401   173     92    236    795     0     0   119    0.03   0.0   0.0   0.00   0.360   0.355   0.351   0.352   0.346   0.360   0.360   0.327   0.324   0.322
 2019 282   114   397   169     92    237    796     0     0   119    0.03   0.0   0.0   0.00   0.341   0.339   0.341   0.343   0.336   0.356   0.357   0.326   0.325   0.323
 2019 283   115   395   167     92    239    800     0     0   119    0.04   0.0   0.0   0.00   0.355   0.337   0.334   0.335   0.327   0.349   0.350   0.325   0.324   0.323
 2019 284   116   419   191    111    251    860     0     0   112    0.04   0.0   0.0  19.48   0.360   0.359   0.351   0.352   0.346   0.360   0.360   0.345   0.345   0.347
 2019 285   117   416   188    112    261    872     0     0   113    0.04   0.0   0.0   0.27   0.359   0.359   0.351   0.352   0.346   0.360   0.360   0.345   0.345   0.340
 2019 286   118   404   176    112    269    872     0     0   115    0.04   0.0   0.0   0.00   0.332   0.338   0.339   0.342   0.335   0.355   0.356   0.332   0.336   0.333
 2019 287   119   416   188    115    279    901     0     0   114    0.05   0.0   0.0   3.72   0.359   0.359   0.351   0.352   0.346   0.359   0.360   0.345   0.345   0.341
 2019 288   120   407   179    115    287    905     0     0   115    0.05   0.0   0.0   0.00   0.356   0.344   0.347   0.347   0.338   0.357   0.357   0.333   0.336   0.334
 2019 289   121   408   180    115    293    916     0     0   116    0.05   0.0   0.0   0.09   0.359   0.359   0.351   0.352   0.346   0.359   0.360   0.334   0.334   0.331
 2019 290   122   404   176    115    297    920     0     0   117    0.05   0.0   0.0   0.00   0.361   0.348   0.351   0.350   0.340   0.359   0.358   0.329   0.330   0.328
 2019 291   123   420   192    125    310    962     0     0   112    0.06   0.0   0.0   9.31   0.360   0.360   0.351   0.352   0.346   0.360   0.361   0.345   0.345   0.347
 2019 292   124   412   184    125    320    968     0     0   114    0.06   0.0   0.0   0.00   0.360   0.354   0.352   0.352   0.346   0.360   0.361   0.334   0.338   0.336
 2019 293   125   404   176    125    327    971     0     0   116    0.06   0.0   0.0   0.00   0.357   0.343   0.345   0.346   0.338   0.357   0.357   0.329   0.331   0.330
 2019 294   126   410   182    125    332    987     0     0   116    0.07   0.0   0.0   0.41   0.359   0.359   0.351   0.352   0.346   0.360   0.360   0.341   0.337   0.330
 2019 295   127   419   191    200    378   1122     0     0   111    0.07   0.0   0.0  75.33   0.359   0.359   0.351   0.352   0.346   0.360   0.360   0.345   0.345   0.347
 2019 296   128   420   192    201    391   1140     0     0   111    0.07   0.0   0.0   0.89   0.359   0.360   0.351   0.352   0.346   0.360   0.360   0.345   0.345   0.347
 2019 297   129   412   184    201    400   1146     0     0   114    0.07   0.0   0.0   0.00   0.359   0.356   0.351   0.352   0.346   0.360   0.360   0.335   0.338   0.337
 2019 298   130   409   181    201    407   1155     0     0   115    0.08   0.0   0.0   0.00   0.359   0.359   0.351   0.352   0.346   0.360   0.360   0.334   0.335   0.332
 2019 299   131   419   191    208    423   1191     0     0   111    0.08   0.0   0.0   6.40   0.359   0.359   0.351   0.352   0.346   0.360   0.360   0.345   0.345   0.347
 2019 300   132   420   192    210    440   1215     0     0   111    0.08   0.0   0.0   1.99   0.360   0.360   0.352   0.353   0.347   0.360   0.361   0.345   0.346   0.347
 2019 301   133   415   187    210    450   1224     0     0   113    0.09   0.0   0.0   0.00   0.360   0.360   0.352   0.352   0.346   0.360   0.361   0.341   0.342   0.338
 2019 302   134   403   175    210    458   1224     0     0   115    0.09   0.0   0.0   0.00   0.332   0.338   0.340   0.342   0.335   0.355   0.356   0.331   0.334   0.332
 2019 303   135   396   168    210    463   1226     0     0   117    0.09   0.0   0.0   0.00   0.335   0.331   0.326   0.330   0.324   0.346   0.348   0.325   0.328   0.327
 2019 304   136   419   191    336    505   1423     0     0   111    0.10   0.0   0.0 126.23   0.358   0.359   0.351   0.352   0.346   0.359   0.360   0.345   0.345   0.347
 2019 305   137   411   183    336    514   1428     0     0   114    0.10   0.0   0.0   0.00   0.358   0.352   0.351   0.352   0.345   0.360   0.360   0.333   0.337   0.336
 2019 306   138   419   191    343    533   1467     0     0   111    0.10   0.0   0.0   6.82   0.358   0.359   0.351   0.352   0.346   0.360   0.360   0.345   0.345   0.347
 2019 307   139   394   166    343    555   1467     0     0   117    0.09   0.0   0.0   0.00   0.327   0.334   0.323   0.325   0.317   0.335   0.336   0.325   0.326   0.328
 2019 308   140   384   156    343    559   1467     0     0   119    0.09   0.0   0.0   0.00   0.314   0.325   0.314   0.315   0.306   0.327   0.327   0.319   0.319   0.322
 2019 309   141   380   152    343    559   1467     0     0   120    0.08   0.0   0.0   0.00   0.300   0.316   0.306   0.308   0.300   0.321   0.323   0.315   0.317   0.321
 2019 310   142   375   147    343    559   1467     0     0   120    0.07   0.0   0.0   0.00   0.287   0.307   0.299   0.302   0.294   0.316   0.318   0.312   0.314   0.319
 2019 311   143   371   143    343    559   1467     0     0   120    0.07   0.0   0.0   0.00   0.259   0.299   0.293   0.296   0.289   0.311   0.314   0.310   0.312   0.319
 2019 312   144   366   138    343    559   1467     0     0   120    0.06   0.0   0.0   0.00   0.236   0.289   0.286   0.290   0.284   0.306   0.309   0.307   0.309   0.318
 2019 313   145   362   134    343    559   1467     0     0   120    0.08   0.0   0.0   0.00   0.222   0.280   0.278   0.284   0.278   0.301   0.305   0.304   0.306   0.317
 2019 314   146   370   142    343    559   1480     0     0   120    0.13   0.0   0.0   0.00   0.351   0.320   0.272   0.278   0.272   0.296   0.301   0.301   0.304   0.316
 2019 315   147   367   139    343    559   1482     0     0   120    0.13   0.0   0.0   0.00   0.340   0.328   0.265   0.272   0.267   0.291   0.296   0.298   0.301   0.315
 2019 316   148   364   136    343    559   1482     0     0   120    0.12   0.0   0.0   0.00   0.321   0.323   0.261   0.266   0.263   0.287   0.292   0.295   0.299   0.314
 2019 317   149   360   132    343    559   1482     0     0   120    0.15   0.0   0.0   0.00   0.300   0.315   0.258   0.262   0.260   0.282   0.288   0.292   0.297   0.313
 2019 318   150   355   127    343    559   1482     0     0   120    0.15   0.0   0.0   0.00   0.269   0.306   0.255   0.259   0.258   0.277   0.284   0.289   0.294   0.312
 2019 319   151   351   123    343    559   1482     0     0   120    0.13   0.0   0.0   0.00   0.241   0.297   0.252   0.256   0.256   0.272   0.279   0.286   0.291   0.311
 2019 320   152   347   119    343    559   1482     0     0   120    0.11   0.0   0.0   0.00   0.223   0.286   0.250   0.254   0.254   0.266   0.274   0.283   0.288   0.310
 2019 321   153   343   115    343    559   1482     0     0   120    0.10   0.0   0.0   0.00   0.207   0.275   0.248   0.252   0.252   0.262   0.269   0.279   0.285   0.309
 2019 322   154   365   137    343    559   1482     1    27   120    0.08   0.0   0.0   0.00   0.349   0.357   0.356   0.322   0.258   0.259   0.264   0.276   0.282   0.308
 2019 323   155   361   133    343    559   1482     1    27   120    0.07   0.0   0.0   0.00   0.320   0.332   0.325   0.315   0.307   0.268   0.261   0.272   0.279   0.306
 2019 324   156   358   130    343    559   1484     1    27   120    0.18   0.0   0.0   0.00   0.325   0.328   0.317   0.315   0.301   0.265   0.259   0.269   0.277   0.305
 2019 325   157   358   130    343    559   1488     1    27   120    0.16   0.0   0.0   0.00   0.348   0.332   0.319   0.316   0.300   0.262   0.257   0.267   0.274   0.304
 2019 326   158   354   126    343    559   1488     1    27   120    0.14   0.0   0.0   0.00   0.321   0.326   0.313   0.313   0.294   0.259   0.255   0.265   0.271   0.302
 2019 327   159   349   121    343    559   1488     1    27   120    0.11   0.0   0.0   0.00   0.288   0.317   0.306   0.308   0.289   0.257   0.254   0.263   0.269   0.302
 2019 328   160   345   117    343    559   1488     1    27   120    0.10   0.0   0.0   0.00   0.258   0.309   0.300   0.302   0.285   0.256   0.253   0.262   0.268   0.301
 2019 329   161   342   114    343    559   1488     1    27   120    0.08   0.0   0.0   0.00   0.236   0.300   0.293   0.296   0.279   0.254   0.252   0.261   0.266   0.300
 2019 330   162   338   110    343    559   1488     1    27   120    0.07   0.0   0.0   0.00   0.218   0.290   0.286   0.290   0.273   0.253   0.251   0.260   0.264   0.299
 2019 331   163   334   106    343    559   1488     1    27   120    0.06   0.0   0.0   0.00   0.203   0.280   0.278   0.283   0.267   0.251   0.249   0.258   0.263   0.298
 2019 332   164   330   102    343    559   1488     1    27   120    0.05   0.0   0.0   0.00   0.189   0.270   0.270   0.276   0.262   0.250   0.248   0.257   0.261   0.297
 2019 333   165   352   124    343    559   1488     2    53   120    0.04   0.0   0.0   0.00   0.350   0.358   0.342   0.316   0.266   0.249   0.247   0.256   0.260   0.296
 2019 334   166   347   119    343    559   1488     2    53   120    0.04   0.0   0.0   0.00   0.317   0.331   0.318   0.312   0.305   0.256   0.246   0.254   0.258   0.294
 2019 335   167   343   115    343    559   1488     2    53   120    0.03   0.0   0.0   0.00   0.285   0.323   0.312   0.306   0.300   0.254   0.245   0.253   0.258   0.293
 2019 336   168   340   112    343    559   1489     2    53   120    0.09   0.0   0.0   0.00   0.260   0.314   0.306   0.301   0.295   0.253   0.244   0.253   0.257   0.292
 2019 337   169   336   108    343    559   1489     2    53   120    0.07   0.0   0.0   0.00   0.237   0.305   0.299   0.295   0.290   0.252   0.244   0.252   0.256   0.292
 2019 338   170   332   104    343    559   1489     2    53   120    0.06   0.0   0.0   0.00   0.219   0.296   0.291   0.288   0.284   0.250   0.243   0.251   0.255   0.291
 2019 339   171   329   101    343    559   1489     2    53   120    0.05   0.0   0.0   0.00   0.204   0.286   0.284   0.282   0.278   0.249   0.243   0.251   0.254   0.290
 2019 340   172   326    98    343    559   1489     2    53   120    0.04   0.0   0.0   0.00   0.190   0.277   0.277   0.276   0.272   0.248   0.242   0.250   0.254   0.289
 2019 341   173   322    94    343    559   1489     2    53   120    0.03   0.0   0.0   0.00   0.177   0.268   0.270   0.269   0.266   0.247   0.241   0.250   0.253   0.288
 2019 342   174   345   117    343    559   1489     3    79   120    0.03   0.0   0.0   0.00   0.351   0.360   0.343   0.316   0.265   0.246   0.241   0.249   0.252   0.286
 2019 343   175   341   113    343    559   1489     3    79   120    0.02   0.0   0.0   0.00   0.317   0.332   0.319   0.312   0.305   0.256   0.239   0.247   0.251   0.285
 2019 344   176   337   109    343    559   1489     3    79   120    0.02   0.0   0.0   0.00   0.285   0.323   0.313   0.307   0.300   0.254   0.239   0.247   0.250   0.284
 2019 345   177   333   105    343    559   1489     3    79   120    0.02   0.0   0.0   0.00   0.256   0.315   0.306   0.301   0.295   0.253   0.238   0.246   0.250   0.283
 2019 346   178   330   102    343    559   1489     3    79   120    0.01   0.0   0.0   0.00   0.234   0.306   0.299   0.295   0.290   0.252   0.238   0.246   0.250   0.282
 2019 347   179   326    98    343    559   1489     3    79   120    0.01   0.0   0.0   0.00   0.217   0.296   0.292   0.288   0.283   0.250   0.237   0.246   0.249   0.281
 2019 348   180   323    95    343    559   1489     3    79   120    0.06   0.0   0.0   0.00   0.204   0.287   0.285   0.282   0.278   0.249   0.237   0.245   0.249   0.280
 2019 349   181   320    92    343    559   1489     3    79   120    0.05   0.0   0.0   0.00   0.190   0.277   0.277   0.276   0.272   0.248   0.237   0.245   0.248   0.279
 2019 350   182   317    89    343    559   1489     3    79   120    0.04   0.0   0.0   0.00   0.178   0.268   0.270   0.269   0.266   0.247   0.236   0.244   0.248   0.278
 2019 351   183   340   112    343    559   1489     4   106   120    0.03   0.0   0.0   0.00   0.351   0.360   0.343   0.316   0.266   0.246   0.236   0.244   0.247   0.277
 2019 352   184   335   107    343    559   1489     4   106   120    0.03   0.0   0.0   0.00   0.320   0.333   0.320   0.313   0.306   0.256   0.235   0.243   0.246   0.275
 2019 353   185   331   103    343    559   1489     4   106   120    0.02   0.0   0.0   0.00   0.302   0.323   0.312   0.306   0.300   0.254   0.233   0.241   0.245   0.274
 2019 354   186   328   100    343    559   1489     4   106   120    0.02   0.0   0.0   0.00   0.272   0.315   0.306   0.301   0.295   0.253   0.233   0.241   0.245   0.273
 2019 355   187   324    96    343    559   1489     4   106   120    0.09   0.0   0.0   0.00   0.249   0.307   0.300   0.296   0.290   0.251   0.233   0.241   0.244   0.272
 2019 356   188   321    93    343    559   1489     4   106   120    0.07   0.0   0.0   0.00   0.229   0.298   0.293   0.290   0.284   0.250   0.232   0.240   0.244   0.271
 2019 357   189   318    90    343    559   1489     4   106   120    0.10   0.0   0.0   0.00   0.215   0.288   0.286   0.283   0.279   0.249   0.232   0.240   0.244   0.271
 2019 358   190   315    87    343    559   1489     4   106   120    0.08   0.0   0.0   0.00   0.200   0.279   0.279   0.277   0.273   0.248   0.232   0.240   0.243   0.270
 2019 359   191   311    83    343    559   1489     4   106   120    0.07   0.0   0.0   0.00   0.186   0.269   0.271   0.270   0.267   0.247   0.231   0.239   0.243   0.269
 2019 360   192   334   106    343    559   1489     5   132   120    0.05   0.0   0.0   0.00   0.350   0.359   0.341   0.315   0.266   0.246   0.231   0.239   0.243   0.268
 2019 361   193   329   101    343    559   1489     5   132   120    0.04   0.0   0.0   0.00   0.317   0.332   0.319   0.312   0.305   0.253   0.230   0.238   0.241   0.267
 2019 362   194   326    98    343    559   1489     5   132   120    0.03   0.0   0.0   0.00   0.286   0.324   0.313   0.307   0.300   0.252   0.229   0.238   0.241   0.266
 2019 363   195   322    94    343    559   1490     5   132   120    0.10   0.0   0.0   0.00   0.261   0.315   0.307   0.302   0.296   0.251   0.229   0.237   0.241   0.266
 2019 364   196   320    92    343    559   1491     5   132   120    0.23   0.0   0.0   0.00   0.258   0.306   0.300   0.296   0.290   0.250   0.229   0.237   0.241   0.265
 2019 365   197   317    89    343    559   1491     5   132   120    0.18   0.0   0.0   0.00   0.236   0.298   0.294   0.291   0.285   0.249   0.229   0.237   0.240   0.265
 2020 001   198   314    86    343    559   1491     5   132   120    0.22   0.0   0.0   0.00   0.223   0.289   0.287   0.284   0.280   0.248   0.228   0.237   0.240   0.264
 2020 002   199   311    83    343    559   1491     5   132   120    0.17   0.0   0.0   0.00   0.207   0.280   0.280   0.278   0.274   0.247   0.228   0.236   0.240   0.264
 2020 003   200   308    80    343    559   1491     5   132   120    0.14   0.0   0.0   0.00   0.193   0.271   0.273   0.272   0.269   0.246   0.228   0.236   0.240   0.264
 2020 004   201   305    77    343    559   1491     5   132   120    0.11   0.0   0.0   0.00   0.180   0.263   0.266   0.267   0.265   0.245   0.228   0.236   0.239   0.263
 2020 005   202   329   101    343    559   1491     6   159   120    0.16   0.0   0.0   0.00   0.351   0.361   0.347   0.317   0.266   0.244   0.227   0.236   0.239   0.262
 2020 006   203   325    97    343    559   1491     6   159   120    0.13   0.0   0.0   0.00   0.318   0.333   0.321   0.312   0.305   0.260   0.226   0.234   0.238   0.261
 2020 007   204   321    93    343    559   1492     6   159   120    0.20   0.0   0.0   0.00   0.303   0.321   0.312   0.305   0.298   0.257   0.225   0.233   0.237   0.260
 2020 008   205   317    89    343    559   1492     6   159   120    0.16   0.0   0.0   0.00   0.273   0.313   0.306   0.299   0.293   0.256   0.225   0.233   0.237   0.260
 2020 009   206   314    86    343    559   1492     6   159   120    0.12   0.0   0.0   0.00   0.246   0.305   0.300   0.295   0.289   0.254   0.224   0.233   0.237   0.260
 2020 010   207   311    83    343    559   1492     6   159   120    0.20   0.0   0.0   0.00   0.233   0.296   0.293   0.288   0.283   0.253   0.224   0.233   0.236   0.259
 2020 011   208   308    80    343    559   1492     6   159   120    0.16   0.0   0.0   0.00   0.216   0.287   0.286   0.282   0.278   0.252   0.224   0.232   0.236   0.259
 2020 012   209   305    77    343    559   1492     6   159   120    0.12   0.0   0.0   0.00   0.200   0.278   0.279   0.276   0.272   0.251   0.224   0.232   0.236   0.258
 2020 013   210   302    74    343    559   1492     6   159   120    0.10   0.0   0.0   0.00   0.187   0.268   0.272   0.269   0.266   0.249   0.224   0.232   0.236   0.258
 2020 014   211   325    97    343    559   1492     7   185   120    0.07   0.0   0.0   0.00   0.350   0.359   0.342   0.316   0.265   0.248   0.223   0.232   0.235   0.258
 2020 015   212   320    92    343    559   1492     7   185   120    0.06   0.0   0.0   0.00   0.315   0.331   0.318   0.312   0.305   0.255   0.222   0.230   0.234   0.257
 2020 016   213   317    89    343    559   1492     7   185   120    0.05   0.0   0.0   0.00   0.285   0.323   0.313   0.307   0.301   0.254   0.222   0.230   0.234   0.256
 2020 017   214   315    87    343    559   1493     7   185   120    0.26   0.0   0.0   0.00   0.275   0.316   0.307   0.302   0.296   0.253   0.222   0.230   0.234   0.256
 2020 018   215   315    87    343    559   1497     7   185   120    0.21   0.0   0.0   0.00   0.307   0.313   0.301   0.297   0.292   0.252   0.221   0.230   0.234   0.256
 2020 019   216   312    84    343    559   1497     7   185   120    0.16   0.0   0.0   0.00   0.277   0.305   0.296   0.292   0.287   0.251   0.221   0.230   0.234   0.256
 2020 020   217   309    81    343    559   1497     7   185   120    0.13   0.0   0.0   0.00   0.250   0.298   0.290   0.288   0.283   0.250   0.221   0.230   0.234   0.255
 2020 021   218   306    78    343    559   1497     7   185   120    0.18   0.0   0.0   0.00   0.234   0.289   0.283   0.281   0.278   0.249   0.221   0.230   0.233   0.255
 2020 022   219   303    75    343    559   1497     7   185   120    0.14   0.0   0.0   0.00   0.217   0.280   0.276   0.275   0.272   0.248   0.221   0.229   0.233   0.255
 2020 023   220   300    72    343    559   1497     7   185   120    0.11   0.0   0.0   0.00   0.201   0.271   0.269   0.269   0.267   0.247   0.221   0.229   0.233   0.255
 2020 024   221   297    69    343    559   1497     7   185   120    0.08   0.0   0.0   0.00   0.188   0.261   0.263   0.263   0.262   0.246   0.220   0.229   0.233   0.254
 2020 025   222   321    93    343    559   1497     8   213   120    0.06   0.0   0.0   0.00   0.350   0.360   0.347   0.316   0.261   0.245   0.220   0.229   0.233   0.254
 2020 026   223   316    88    343    559   1497     8   213   120    0.05   0.0   0.0   0.00   0.311   0.329   0.319   0.311   0.305   0.252   0.219   0.227   0.231   0.253
 2020 027   224   313    85    343    559   1497     8   213   120    0.04   0.0   0.0   0.00   0.281   0.322   0.313   0.306   0.301   0.251   0.218   0.227   0.231   0.252
 2020 028   225   310    82    343    559   1497     8   213   120    0.03   0.0   0.0   0.00   0.253   0.314   0.307   0.301   0.296   0.250   0.218   0.227   0.231   0.252
 2020 029   226   307    79    343    559   1497     8   213   120    0.02   0.0   0.0   0.00   0.233   0.305   0.300   0.295   0.291   0.249   0.218   0.227   0.231   0.252
 2020 030   227   305    77    343    559   1499     8   213   120    0.28   0.0   0.0   0.00   0.249   0.295   0.293   0.288   0.285   0.248   0.218   0.227   0.231   0.252
 2020 031   228   303    75    343    559   1500     8   213   120    0.22   0.0   0.0   0.00   0.244   0.287   0.287   0.283   0.280   0.247   0.218   0.227   0.231   0.252
 2020 032   229   300    72    343    559   1500     8   213   120    0.25   0.0   0.0   0.00   0.229   0.278   0.280   0.277   0.274   0.246   0.218   0.226   0.230   0.251
 2020 033   230   298    70    343    559   1500     8   213   120    0.19   0.0   0.0   0.00   0.213   0.270   0.273   0.271   0.269   0.245   0.218   0.226   0.230   0.251
 2020 034   231   295    67    343    559   1501     8   213   120    0.23   0.0   0.0   0.00   0.202   0.262   0.266   0.265   0.265   0.245   0.217   0.226   0.230   0.251
 2020 035   232   319    91    343    559   1501     9   239   120    0.26   0.0   0.0   0.00   0.350   0.361   0.347   0.317   0.265   0.244   0.217   0.226   0.230   0.251
 2020 036   233   315    87    343    559   1501     9   239   120    0.20   0.0   0.0   0.00   0.317   0.333   0.321   0.313   0.306   0.258   0.216   0.225   0.229   0.250
 2020 037   234   311    83    343    559   1501     9   239   120    0.15   0.0   0.0   0.00   0.297   0.322   0.313   0.306   0.299   0.255   0.215   0.224   0.228   0.249
 2020 038   235   310    82    343    559   1504     9   239   120    0.29   0.0   0.0   0.00   0.305   0.319   0.307   0.301   0.295   0.254   0.214   0.223   0.228   0.248
 2020 039   236   307    79    343    559   1504     9   239   120    0.25   0.0   0.0   0.00   0.286   0.311   0.301   0.296   0.290   0.253   0.214   0.223   0.228   0.248
 2020 040   237   304    76    343    559   1504     9   239   120    0.19   0.0   0.0   0.00   0.259   0.305   0.297   0.292   0.287   0.252   0.214   0.223   0.228   0.248
 2020 041   238   302    74    343    559   1504     9   239   120    0.14   0.0   0.0   0.00   0.238   0.297   0.291   0.287   0.282   0.251   0.214   0.223   0.227   0.248
 2020 042   239   301    73    343    559   1506     9   239   120    0.30   0.0   0.0   0.00   0.252   0.289   0.285   0.282   0.278   0.250   0.214   0.223   0.227   0.248
 2020 043   240   298    70    343    559   1506     9   239   120    0.22   0.0   0.0   0.00   0.232   0.282   0.280   0.277   0.273   0.249   0.214   0.223   0.227   0.248
 2020 044   241   295    67    343    559   1506     9   239   120    0.17   0.0   0.0   0.00   0.215   0.275   0.274   0.272   0.269   0.248   0.214   0.223   0.227   0.248
 2020 045   242   293    65    343    559   1506     9   239   120    0.13   0.0   0.0   0.00   0.200   0.266   0.268   0.266   0.265   0.248   0.214   0.223   0.227   0.247
 2020 046   243   316    88    343    559   1506    10   265   120    0.13   0.0   0.0   0.00   0.350   0.360   0.346   0.317   0.265   0.246   0.213   0.223   0.227   0.247
 2020 047   244   311    83    343    559   1506    10   265   120    0.10   0.0   0.0   0.00   0.313   0.331   0.320   0.312   0.305   0.257   0.212   0.221   0.226   0.246
 2020 048   245   308    80    343    559   1506    10   265   120    0.07   0.0   0.0   0.00   0.284   0.325   0.315   0.308   0.301   0.256   0.212   0.221   0.226   0.246
 2020 049   246   306    78    343    559   1506    10   265   120    0.05   0.0   0.0   0.00   0.257   0.318   0.310   0.304   0.298   0.255   0.212   0.221   0.225   0.246
 2020 050   247   303    75    343    559   1506    10   265   120    0.04   0.0   0.0   0.00   0.236   0.311   0.305   0.299   0.293   0.254   0.212   0.221   0.225   0.246
 2020 051   248   300    72    343    559   1507    10   265   120    0.12   0.0   0.0   0.00   0.223   0.303   0.299   0.294   0.289   0.253   0.211   0.221   0.225   0.246
 2020 052   249   298    70    343    559   1507    10   265   120    0.09   0.0   0.0   0.00   0.207   0.296   0.294   0.290   0.285   0.252   0.211   0.221   0.225   0.245
 2020 053   250   296    68    343    559   1507    10   265   120    0.07   0.0   0.0   0.00   0.192   0.288   0.288   0.284   0.280   0.251   0.211   0.221   0.225   0.245
 2020 054   251   294    66    343    559   1507    10   265   120    0.29   0.0   0.0   0.00   0.190   0.280   0.282   0.279   0.275   0.250   0.211   0.220   0.225   0.245
 2020 055   252   292    64    343    559   1508    10   265   120    0.24   0.0   0.0   0.00   0.192   0.272   0.276   0.274   0.270   0.249   0.211   0.220   0.225   0.245
 2020 056   253   290    62    343    559   1508    10   265   120    0.18   0.0   0.0   0.00   0.180   0.265   0.271   0.269   0.267   0.248   0.211   0.220   0.225   0.245
 2020 057   254   314    86    343    559   1508    11   292   120    0.14   0.0   0.0   0.00   0.351   0.362   0.344   0.317   0.267   0.247   0.211   0.220   0.225   0.245
 2020 058   255   309    81    343    559   1508    11   292   120    0.10   0.0   0.0   0.00   0.312   0.332   0.319   0.312   0.305   0.263   0.209   0.219   0.223   0.244
 2020 059   256   306    78    343    559   1508    11   292   120    0.08   0.0   0.0   0.00   0.283   0.325   0.314   0.308   0.301   0.261   0.209   0.219   0.223   0.244
 2020 060   257   304    76    343    559   1508    11   292   120    0.15   0.0   0.0   0.00   0.260   0.318   0.309   0.304   0.297   0.260   0.209   0.218   0.223   0.243
 2020 061   258   301    73    343    559   1508    11   292   120    0.11   0.0   0.0   0.00   0.238   0.311   0.304   0.299   0.293   0.258   0.209   0.218   0.223   0.243
 2020 062   259   300    72    343    559   1510    11   292   120    0.31   0.0   0.0   0.00   0.251   0.305   0.300   0.295   0.289   0.257   0.209   0.218   0.223   0.243
 2020 063   260   298    70    343    559   1511    11   292   120    0.25   0.0   0.0   0.00   0.236   0.298   0.295   0.291   0.285   0.256   0.209   0.218   0.223   0.243
 2020 064   261   295    67    343    559   1511    11   292   120    0.19   0.0   0.0   0.00   0.219   0.290   0.289   0.286   0.281   0.255   0.209   0.218   0.223   0.243
 2020 065   262   293    65    343    559   1511    11   292   120    0.14   0.0   0.0   0.00   0.203   0.283   0.283   0.281   0.276   0.253   0.208   0.218   0.223   0.243
 2020 066   263   291    63    343    559   1511    11   292   120    0.10   0.0   0.0   0.00   0.190   0.276   0.278   0.277   0.273   0.253   0.208   0.218   0.223   0.243
 2020 067   264   289    61    343    559   1511    11   292   120    0.08   0.0   0.0   0.00   0.177   0.270   0.273   0.272   0.269   0.252   0.208   0.218   0.223   0.243
 2020 068   265   312    84    343    559   1511    12   318   120    0.06   0.0   0.0   0.00   0.351   0.362   0.343   0.317   0.269   0.251   0.208   0.218   0.223   0.243
 2020 069   266   306    78    343    559   1511    12   318   120    0.04   0.0   0.0   0.00   0.306   0.329   0.317   0.311   0.303   0.266   0.206   0.216   0.221   0.241
 2020 070   267   304    76    343    559   1511    12   318   120    0.03   0.0   0.0   0.00   0.278   0.323   0.313   0.307   0.300   0.264   0.206   0.216   0.221   0.241
 2020 071   268   301    73    343    559   1511    12   318   120    0.02   0.0   0.0   0.00   0.253   0.318   0.309   0.304   0.297   0.263   0.206   0.216   0.221   0.241
 2020 072   269   299    71    343    559   1511    12   318   120    0.14   0.0   0.0   0.00   0.239   0.312   0.306   0.301   0.294   0.261   0.206   0.216   0.221   0.241
 2020 073   270   297    69    343    559   1511    12   318   120    0.10   0.0   0.0   0.00   0.221   0.307   0.301   0.297   0.291   0.260   0.206   0.216   0.221   0.241
 2020 074   271   295    67    343    559   1511    12   318   120    0.08   0.0   0.0   0.00   0.206   0.301   0.298   0.294   0.288   0.259   0.206   0.216   0.221   0.241
 2020 075   272   293    65    343    559   1511    12   318   120    0.06   0.0   0.0   0.00   0.191   0.295   0.293   0.290   0.285   0.258   0.206   0.215   0.221   0.241
 2020 076   273   291    63    343    559   1511    12   318   120    0.04   0.0   0.0   0.00   0.179   0.289   0.289   0.287   0.282   0.257   0.205   0.215   0.221   0.241
 2020 077   274   290    62    343    559   1511    12   318   120    0.03   0.0   0.0   0.00   0.167   0.283   0.285   0.283   0.278   0.256   0.205   0.215   0.220   0.241
 2020 078   275   288    60    343    559   1511    12   318   120    0.02   0.0   0.0   0.00   0.157   0.277   0.280   0.279   0.275   0.255   0.205   0.215   0.220   0.240
 2020 079   276   311    83    343    559   1511    13   343   120    0.02   0.0   0.0   0.00   0.352   0.359   0.341   0.318   0.275   0.254   0.205   0.215   0.220   0.240
 2020 080   277   306    78    343    559   1511    13   343   120    0.08   0.0   0.0   0.00   0.313   0.333   0.332   0.326   0.294   0.251   0.203   0.214   0.219   0.239
 2020 081   278   300    72    343    559   1511    13   343   120    0.06   0.0   0.0   0.00   0.286   0.320   0.315   0.314   0.299   0.247   0.201   0.212   0.217   0.238
 2020 082   279   298    70    343    559   1511    13   343   120    0.04   0.0   0.0   0.00   0.260   0.314   0.311   0.311   0.296   0.247   0.201   0.212   0.217   0.238
 2020 083   280   303    75    343    559   1519    13   343   120    0.32   0.0   0.0   0.00   0.341   0.331   0.314   0.307   0.294   0.246   0.201   0.212   0.217   0.237
 2020 084   281   300    72    343    559   1521    13   343   120    0.24   0.0   0.0   0.00   0.321   0.327   0.314   0.303   0.288   0.244   0.200   0.210   0.216   0.236
 2020 085   282   298    70    343    559   1521    13   343   120    0.18   0.0   0.0   0.00   0.293   0.322   0.310   0.301   0.286   0.243   0.200   0.210   0.216   0.236
 2020 086   283   296    68    343    559   1521    13   343   120    0.16   0.0   0.0   0.00   0.269   0.317   0.307   0.298   0.283   0.243   0.199   0.210   0.216   0.236
 2020 087   284   293    65    343    559   1521    13   343   120    0.12   0.0   0.0   0.00   0.246   0.311   0.303   0.295   0.280   0.243   0.199   0.210   0.216   0.236
 2020 088   285   291    63    343    559   1521    13   343   120    0.09   0.0   0.0   0.00   0.227   0.306   0.299   0.291   0.277   0.242   0.199   0.210   0.216   0.236
 2020 089   286   289    61    343    559   1521    13   343   120    0.06   0.0   0.0   0.00   0.211   0.300   0.295   0.288   0.274   0.242   0.199   0.210   0.216   0.236
 2020 090   287   287    59    343    559   1521    13   343   120    0.05   0.0   0.0   0.00   0.196   0.294   0.291   0.284   0.271   0.241   0.199   0.210   0.216   0.236
 2020 091   288   305    77    343    559   1543    13   343   120    0.32   0.0   0.0   0.00   0.353   0.354   0.342   0.320   0.279   0.239   0.197   0.208   0.214   0.235
 2020 092   289   300    72    343    559   1543    13   343   120    0.24   0.0   0.0   0.00   0.314   0.331   0.320   0.314   0.305   0.260   0.196   0.207   0.213   0.233
 2020 093   290   295    67    343    559   1543    13   343   120    0.21   0.0   0.0   0.00   0.287   0.317   0.311   0.306   0.298   0.256   0.194   0.205   0.211   0.232
 2020 094   291   293    65    343    559   1543    13   343   120    0.15   0.0   0.0   0.00   0.262   0.312   0.307   0.303   0.295   0.255   0.194   0.205   0.211   0.232
 2020 095   292   291    63    343    559   1543    13   343   120    0.11   0.0   0.0   0.00   0.241   0.308   0.304   0.300   0.293   0.254   0.194   0.205   0.211   0.232
 2020 096   293   288    60    343    559   1543    13   343   120    0.08   0.0   0.0   0.00   0.223   0.302   0.300   0.297   0.290   0.254   0.194   0.205   0.211   0.232
 2020 097   294   289    61    343    559   1546    13   343   120    0.33   0.0   0.0   0.00   0.252   0.297   0.297   0.294   0.287   0.253   0.194   0.205   0.211   0.232
 2020 098   295   287    59    343    559   1546    13   343   120    0.24   0.0   0.0   0.00   0.232   0.292   0.293   0.291   0.284   0.252   0.193   0.205   0.211   0.232
 2020 099   296   285    57    343    559   1546    13   343   120    0.18   0.0   0.0   0.00   0.216   0.287   0.290   0.288   0.282   0.252   0.193   0.205   0.211   0.232
 2020 100   297   283    55    343    559   1546    13   343   120    0.13   0.0   0.0   0.00   0.200   0.282   0.286   0.285   0.279   0.251   0.193   0.205   0.211   0.232
 2020 101   298   304    76    343    559   1571    13   343   120    0.34   0.0   0.0   0.00   0.351   0.356   0.349   0.333   0.306   0.252   0.191   0.203   0.210   0.230
 2020 102   299   301    73    343    559   1573    13   343   120    0.27   0.0   0.0   0.00   0.327   0.337   0.339   0.335   0.317   0.273   0.190   0.201   0.209   0.229
 2020 103   300   296    68    343    559   1573    13   343   120    0.29   0.0   0.0   0.00   0.303   0.324   0.318   0.322   0.312   0.284   0.188   0.200   0.207   0.228
 2020 104   301   291    63    343    559   1573    13   343   120    0.21   0.0   0.0   0.00   0.278   0.312   0.309   0.315   0.306   0.278   0.186   0.198   0.206   0.226
 2020 105   302   289    61    343    559   1573    13   343   120    0.15   0.0   0.0   0.00   0.254   0.308   0.306   0.312   0.304   0.277   0.186   0.198   0.206   0.226
 2020 106   303   287    59    343    559   1573    13   343   120    0.11   0.0   0.0   0.00   0.234   0.303   0.303   0.309   0.301   0.275   0.186   0.198   0.206   0.226
 2020 107   304   285    57    343    559   1573    13   343   120    0.08   0.0   0.0   0.00   0.217   0.299   0.300   0.307   0.299   0.273   0.186   0.198   0.206   0.226
 2020 108   305   283    55    343    559   1573    13   343   120    0.09   0.0   0.0   0.00   0.203   0.294   0.297   0.304   0.297   0.270   0.186   0.198   0.205   0.226
 2020 109   306   282    54    343    559   1573    13   343   120    0.07   0.0   0.0   0.00   0.189   0.290   0.294   0.302   0.295   0.269   0.186   0.198   0.205   0.226
 2020 110   307   280    52    343    559   1573    13   343   120    0.05   0.0   0.0   0.00   0.177   0.286   0.291   0.299   0.292   0.268   0.186   0.198   0.205   0.226
 2020 111   308   279    51    343    559   1573    13   343   120    0.04   0.0   0.0   0.00   0.166   0.281   0.289   0.297   0.290   0.266   0.186   0.198   0.205   0.226
 2020 112   309   277    49    343    559   1573    13   343   120    0.03   0.0   0.0   0.00   0.155   0.277   0.285   0.294   0.288   0.265   0.186   0.198   0.205   0.226
 2020 113   310   276    48    343    559   1573    13   343   120    0.02   0.0   0.0   0.00   0.146   0.273   0.283   0.292   0.286   0.264   0.186   0.198   0.205   0.226
 2020 114   311   275    47    343    559   1574    13   343   120    0.17   0.0   0.0   0.00   0.144   0.269   0.280   0.289   0.284   0.263   0.186   0.198   0.205   0.226
 2020 115   312   299    71    343    559   1574    14   369   120    0.13   0.0   0.0   0.00   0.352   0.358   0.338   0.320   0.287   0.262   0.186   0.198   0.205   0.226
 2020 116   313   300    72    343    559   1580    14   369   120    0.34   0.0   0.0   0.00   0.347   0.350   0.351   0.340   0.314   0.275   0.184   0.196   0.204   0.225
 2020 117   314   301    73    343    559   1585    14   369   120    0.27   0.0   0.0   0.00   0.347   0.342   0.346   0.343   0.325   0.309   0.183   0.195   0.203   0.224
 2020 118   315   297    69    343    559   1585    14   369   120    0.35   0.0   0.0   0.00   0.318   0.331   0.329   0.332   0.322   0.330   0.189   0.194   0.202   0.223
 2020 119   316   293    65    343    559   1586    14   369   120    0.31   0.0   0.0   0.00   0.300   0.320   0.316   0.320   0.313   0.330   0.197   0.192   0.201   0.222
 2020 120   317   293    65    343    559   1590    14   369   120    0.34   0.0   0.0   0.00   0.332   0.325   0.312   0.314   0.307   0.325   0.195   0.191   0.199   0.221
 2020 121   318   302    74    343    559   1603    14   369   120    0.32   0.0   0.0   0.00   0.348   0.358   0.352   0.342   0.322   0.335   0.211   0.190   0.198   0.220
 2020 122   319   307    79    343    559   1613    14   369   120    0.33   0.0   0.0   0.00   0.347   0.358   0.351   0.352   0.347   0.359   0.273   0.188   0.197   0.219
 2020 123   320   303    75    343    559   1613    14   369   120    0.24   0.0   0.0   0.00   0.313   0.333   0.324   0.325   0.318   0.335   0.327   0.210   0.196   0.218
 2020 124   321   304    76    343    559   1619    14   369   120    0.35   0.0   0.0   0.00   0.350   0.335   0.327   0.325   0.315   0.334   0.330   0.211   0.195   0.217
 2020 125   322   303    75    343    559   1622    14   369   120    0.30   0.0   0.0   0.00   0.342   0.334   0.327   0.325   0.314   0.332   0.331   0.212   0.194   0.216
 2020 126   323   299    71    343    559   1622    14   369   120    0.22   0.0   0.0   0.00   0.311   0.325   0.316   0.316   0.306   0.328   0.327   0.216   0.193   0.214
 2020 127   324   297    69    343    559   1622    14   369   120    0.16   0.0   0.0   0.00   0.284   0.321   0.313   0.314   0.305   0.326   0.326   0.216   0.193   0.214
 2020 128   325   295    67    343    559   1623    14   369   120    0.18   0.0   0.0   0.00   0.264   0.318   0.311   0.312   0.303   0.325   0.325   0.216   0.193   0.214
 2020 129   326   293    65    343    559   1623    14   369   120    0.13   0.0   0.0   0.00   0.243   0.314   0.309   0.310   0.302   0.324   0.324   0.216   0.193   0.214
 2020 130   327   298    70    343    559   1630    14   369   120    0.34   0.0   0.0   0.00   0.331   0.327   0.307   0.308   0.300   0.322   0.323   0.216   0.193   0.214
 2020 131   328   300    72    343    559   1635    14   369   120    0.27   0.0   0.0   0.00   0.349   0.335   0.321   0.316   0.295   0.318   0.319   0.215   0.192   0.213
 2020 132   329   296    68    343    559   1636    14   369   120    0.35   0.0   0.0   0.00   0.322   0.329   0.318   0.316   0.294   0.313   0.316   0.213   0.191   0.212
 2020 133   330   294    66    343    559   1636    14   369   120    0.25   0.0   0.0   0.00   0.295   0.326   0.316   0.315   0.292   0.312   0.315   0.213   0.191   0.212
 2020 134   331   294    66    343    559   1638    14   369   120    0.36   0.0   0.0   0.00   0.305   0.323   0.314   0.313   0.291   0.311   0.314   0.213   0.191   0.212
 2020 135   332   292    64    343    559   1638    14   369   120    0.26   0.0   0.0   0.00   0.280   0.320   0.312   0.311   0.289   0.310   0.313   0.213   0.191   0.212
 2020 136   333   300    72    343    559   1651    14   369   120    0.36   0.0   0.0   0.00   0.350   0.346   0.337   0.327   0.308   0.305   0.310   0.212   0.190   0.211
 2020 137   334   297    69    343    559   1651    14   369   120    0.30   0.0   0.0   0.00   0.323   0.333   0.329   0.327   0.313   0.315   0.306   0.210   0.189   0.211
 2020 138   335   292    64    343    559   1651    14   369   120    0.22   0.0   0.0   0.00   0.300   0.323   0.316   0.317   0.308   0.321   0.302   0.209   0.188   0.209
 2020 139   336   292    64    343    559   1653    14   369   120    0.36   0.0   0.0   0.00   0.305   0.321   0.314   0.315   0.306   0.320   0.301   0.209   0.188   0.209
 2020 140   337   290    62    343    559   1654    14   369   120    0.30   0.0   0.0   0.00   0.285   0.317   0.312   0.313   0.305   0.319   0.301   0.209   0.188   0.209
 2020 141   338   296    68    343    559   1661    14   369   120    0.35   0.0   0.0   0.00   0.344   0.338   0.323   0.321   0.304   0.317   0.300   0.209   0.188   0.209
 2020 142   339   328   100    346    559   1700    14   369   120    0.32   0.0   0.0   3.06   0.351   0.360   0.353   0.353   0.348   0.361   0.362   0.325   0.199   0.209
 2020 143   340   333   105    346    559   1709    14   369   120    0.34   0.0   0.0   0.00   0.353   0.360   0.353   0.354   0.348   0.361   0.362   0.332   0.226   0.208
 2020 144   341   332   104    346    559   1713    14   369   120    0.33   0.0   0.0   0.00   0.348   0.345   0.349   0.350   0.341   0.360   0.360   0.329   0.246   0.207
 2020 145   342   340   112    346    559   1724    14   369   120    0.34   0.0   0.0   0.00   0.353   0.360   0.353   0.354   0.348   0.361   0.362   0.333   0.275   0.206
 2020 146   343   336   108    346    559   1724    14   369   120    0.33   0.0   0.0   0.00   0.324   0.339   0.342   0.345   0.338   0.358   0.359   0.329   0.295   0.206
 2020 147   344   333   105    346    559   1725    14   369   120    0.34   0.0   0.0   0.00   0.313   0.328   0.324   0.330   0.325   0.349   0.351   0.326   0.308   0.205
 2020 148   345   329   101    346    559   1725    14   369   120    0.33   0.0   0.0   0.00   0.301   0.321   0.316   0.320   0.314   0.338   0.342   0.323   0.316   0.204
 2020 149   346   352   124    346    559   1752    14   369   120    0.34   0.0   0.0   0.25   0.352   0.360   0.353   0.354   0.348   0.361   0.362   0.343   0.333   0.220
 2020 150   347   359   131    346    559   1763    14   369   120    0.33   0.0   0.0   0.00   0.352   0.360   0.353   0.354   0.348   0.361   0.362   0.342   0.339   0.242
 2020 151   348   356   128    346    559   1764    14   369   120    0.34   0.0   0.0   0.00   0.334   0.342   0.345   0.347   0.340   0.359   0.359   0.332   0.334   0.259
 2020 152   349   354   126    346    559   1766    14   369   120    0.34   0.0   0.0   0.00   0.326   0.333   0.331   0.335   0.329   0.351   0.353   0.328   0.329   0.271
 2020 153   350   405   177    366    559   1840    14   369   120    0.34   0.0   0.0  19.97   0.357   0.362   0.354   0.355   0.349   0.362   0.362   0.346   0.346   0.347
 2020 154   351   405   177    366    559   1845    14   369   120    0.34   0.0   0.0   0.00   0.353   0.350   0.353   0.354   0.347   0.361   0.362   0.335   0.338   0.336
 2020 155   352   402   174    366    562   1848    14   369   119    0.34   0.0   0.0   0.00   0.347   0.341   0.345   0.347   0.339   0.359   0.359   0.330   0.332   0.330
 2020 156   353   388   160    366    572   1848    14   369   120    0.24   0.0   0.0   0.00   0.319   0.330   0.324   0.325   0.317   0.337   0.337   0.321   0.322   0.322
 2020 157   354   384   156    366    572   1849    14   369   120    0.36   0.0   0.0   0.00   0.311   0.323   0.316   0.318   0.310   0.331   0.333   0.319   0.320   0.320
 2020 158   355   384   156    366    572   1852    14   369   120    0.30   0.0   0.0   0.00   0.330   0.326   0.312   0.315   0.307   0.328   0.330   0.317   0.318   0.318
 2020 159   356   380   152    366    572   1852    14   369   120    0.22   0.0   0.0   0.00   0.312   0.319   0.307   0.310   0.303   0.325   0.327   0.315   0.316   0.317
 2020 160   357   396   168    366    572   1871    14   369   120    0.36   0.0   0.0   0.00   0.355   0.361   0.354   0.354   0.349   0.355   0.345   0.320   0.318   0.316
 2020 161   358   387   159    366    577   1871    14   369   120    0.26   0.0   0.0   0.00   0.322   0.337   0.327   0.328   0.320   0.335   0.332   0.318   0.318   0.319
 2020 162   359   384   156    366    577   1872    14   369   120    0.37   0.0   0.0   0.00   0.316   0.329   0.319   0.321   0.314   0.333   0.332   0.319   0.316   0.317
 2020 163   360   380   152    366    577   1872    14   369   120    0.26   0.0   0.0   0.00   0.302   0.323   0.315   0.318   0.308   0.328   0.330   0.318   0.315   0.316
 2020 164   361   378   150    366    577   1872    14   369   120    0.19   0.0   0.0   0.00   0.278   0.320   0.314   0.317   0.307   0.327   0.329   0.318   0.314   0.316
 2020 165   362   410   182    369    579   1912    14   369   119    0.36   0.0   0.0   2.56   0.357   0.362   0.354   0.355   0.349   0.362   0.362   0.346   0.346   0.328
 2020 166   363   391   163    369    594   1912    14   369   120    0.26   0.0   0.0   0.00   0.323   0.338   0.327   0.328   0.320   0.338   0.339   0.327   0.327   0.321
 2020 167   364   387   159    369    595   1912    14   369   120    0.22   0.0   0.0   0.00   0.309   0.331   0.318   0.321   0.313   0.334   0.335   0.322   0.323   0.321
 2020 168   365   383   155    369    595   1912    14   369   120    0.29   0.0   0.0   0.00   0.298   0.323   0.313   0.316   0.307   0.328   0.330   0.319   0.320   0.320
 2020 169   366   383   155    369    595   1915    14   369   120    0.32   0.0   0.0   0.00   0.310   0.324   0.311   0.315   0.306   0.328   0.329   0.318   0.320   0.319
 2020 170   367   384   156    369    595   1919    14   369   120    0.33   0.0   0.0   0.00   0.339   0.331   0.316   0.311   0.303   0.325   0.327   0.316   0.318   0.318
 2020 171   368   381   153    369    595   1920    14   369   120    0.34   0.0   0.0   0.00   0.324   0.329   0.317   0.307   0.300   0.321   0.324   0.314   0.316   0.317
 2020 172   369   379   151    369    595   1920    14   369   120    0.27   0.0   0.0   0.00   0.299   0.326   0.315   0.306   0.299   0.320   0.323   0.314   0.315   0.316
 2020 173   370   378   150    369    595   1922    14   369   120    0.36   0.0   0.0   0.00   0.305   0.324   0.314   0.305   0.298   0.320   0.323   0.313   0.315   0.316
 2020 174   371   381   153    369    595   1929    14   369   120    0.32   0.0   0.0   0.00   0.355   0.336   0.323   0.316   0.295   0.317   0.320   0.311   0.313   0.315
 2020 175   372   378   150    369    595   1929    14   369   120    0.29   0.0   0.0   0.00   0.324   0.331   0.320   0.318   0.295   0.313   0.317   0.309   0.311   0.313
 2020 176   373   377   149    369    595   1932    14   369   120    0.35   0.0   0.0   0.00   0.337   0.333   0.321   0.319   0.297   0.311   0.315   0.307   0.310   0.312
 2020 177   374   374   146    369    595   1932    14   369   120    0.25   0.0   0.0   0.00   0.315   0.328   0.316   0.315   0.294   0.307   0.312   0.305   0.308   0.311
 2020 178   375   372   144    369    595   1932    14   369   120    0.28   0.0   0.0   0.00   0.294   0.325   0.315   0.314   0.293   0.307   0.311   0.304   0.307   0.310
 2020 179   376   370   142    369    595   1932    14   369   120    0.20   0.0   0.0   0.00   0.270   0.322   0.313   0.313   0.292   0.306   0.311   0.304   0.307   0.310
 2020 180   377   377   149    369    595   1943    14   369   120    0.36   0.0   0.0   0.00   0.356   0.342   0.331   0.324   0.303   0.303   0.308   0.302   0.305   0.309
 2020 181   378   376   148    369    595   1945    14   369   120    0.29   0.0   0.0   0.00   0.349   0.340   0.334   0.330   0.313   0.312   0.306   0.300   0.304   0.308
 2020 182   379   378   150    369    595   1951    14   369   120    0.36   0.0   0.0   0.00   0.356   0.344   0.340   0.336   0.321   0.330   0.309   0.298   0.302   0.307
 2020 183   380   375   147    369    595   1951    14   369   120    0.32   0.0   0.0   0.00   0.327   0.335   0.331   0.332   0.320   0.336   0.323   0.296   0.300   0.305
 2020 184   381   371   143    369    595   1951    14   369   120    0.33   0.0   0.0   0.00   0.315   0.328   0.319   0.322   0.314   0.334   0.329   0.295   0.299   0.304
 2020 185   382   389   161    369    595   1973    14   369   120    0.34   0.0   0.0   0.00   0.357   0.362   0.354   0.355   0.349   0.362   0.362   0.322   0.304   0.303
 2020 186   383   391   163    369    595   1977    14   369   120    0.34   0.0   0.0   0.00   0.357   0.351   0.354   0.355   0.346   0.362   0.363   0.327   0.319   0.302
 2020 187   384   390   162    369    595   1979    14   369   120    0.34   0.0   0.0   0.00   0.345   0.342   0.345   0.347   0.340   0.360   0.360   0.328   0.324   0.307
 2020 188   385   386   158    369    595   1980    14   369   120    0.34   0.0   0.0   0.00   0.324   0.333   0.330   0.335   0.329   0.352   0.354   0.326   0.325   0.313
 2020 189   386   386   158    369    595   1983    14   369   120    0.34   0.0   0.0   0.00   0.340   0.334   0.327   0.329   0.322   0.344   0.347   0.324   0.324   0.319
 2020 190   387   383   155    369    595   1983    14   369   120    0.24   0.0   0.0   0.00   0.318   0.328   0.318   0.319   0.311   0.332   0.333   0.319   0.320   0.319
 2020 191   388   380   152    369    595   1983    14   369   120    0.21   0.0   0.0   0.00   0.305   0.322   0.314   0.316   0.308   0.329   0.329   0.318   0.318   0.317
 2020 192   389   419   191    384    605   2051    14   369   114    0.35   0.0   0.0  15.39   0.357   0.362   0.354   0.355   0.349   0.362   0.362   0.346   0.346   0.347
 2020 193   390   408   180    384    613   2052    14   369   115    0.30   0.0   0.0   0.00   0.333   0.343   0.346   0.348   0.341   0.361   0.361   0.334   0.338   0.336
 2020 194   391   391   163    384    627   2052    14   369   118    0.22   0.0   0.0   0.00   0.317   0.332   0.325   0.326   0.318   0.338   0.338   0.323   0.325   0.324
 2020 195   392   384   156    384    630   2052    14   369   120    0.15   0.0   0.0   0.00   0.303   0.325   0.317   0.319   0.310   0.330   0.330   0.319   0.320   0.320
 2020 196   393   390   162    384    630   2061    14   369   120    0.36   0.0   0.0   0.00   0.357   0.345   0.336   0.329   0.315   0.332   0.331   0.319   0.318   0.319
 2020 197   394   385   157    384    632   2061    14   369   120    0.26   0.0   0.0   0.00   0.326   0.333   0.322   0.320   0.309   0.330   0.329   0.318   0.318   0.319
 2020 198   395   387   159    384    632   2066    14   369   120    0.37   0.0   0.0   0.00   0.356   0.338   0.328   0.325   0.312   0.330   0.329   0.317   0.317   0.318
 2020 199   396   386   158    384    632   2068    14   369   120    0.31   0.0   0.0   0.00   0.341   0.337   0.329   0.326   0.314   0.332   0.331   0.317   0.315   0.317
 2020 200   397   396   168    384    632   2081    14   369   120    0.36   0.0   0.0   0.00   0.356   0.362   0.354   0.355   0.348   0.354   0.345   0.321   0.319   0.315
 2020 201   398   398   170    384    632   2087    14   369   120    0.33   0.0   0.0   0.00   0.358   0.354   0.355   0.355   0.349   0.362   0.357   0.325   0.323   0.319
 2020 202   399   395   167    384    632   2087    14   369   120    0.30   0.0   0.0   0.00   0.329   0.339   0.341   0.345   0.339   0.359   0.358   0.327   0.325   0.321
 2020 203   400   387   159    384    637   2087    14   369   120    0.22   0.0   0.0   0.00   0.316   0.331   0.323   0.325   0.317   0.338   0.337   0.320   0.320   0.320
 2020 204   401   387   159    384    637   2091    14   369   120    0.37   0.0   0.0   0.00   0.339   0.333   0.322   0.323   0.313   0.334   0.335   0.320   0.319   0.320
 2020 205   402   383   155    384    637   2091    14   369   120    0.30   0.0   0.0   0.00   0.319   0.330   0.318   0.319   0.308   0.329   0.330   0.319   0.318   0.318
 2020 206   403   381   153    384    637   2091    14   369   120    0.36   0.0   0.0   0.00   0.312   0.324   0.314   0.315   0.305   0.326   0.328   0.317   0.316   0.317
 2020 207   404   379   151    384    637   2092    14   369   120    0.32   0.0   0.0   0.00   0.289   0.321   0.313   0.314   0.304   0.326   0.327   0.317   0.316   0.317
 2020 208   405   377   149    384    637   2092    14   369   120    0.27   0.0   0.0   0.00   0.268   0.318   0.311   0.313   0.303   0.325   0.327   0.317   0.315   0.317
 2020 209   406   376   148    384    637   2092    14   369   120    0.36   0.0   0.0   0.00   0.257   0.316   0.310   0.312   0.302   0.324   0.326   0.316   0.315   0.317

*DSSAT Cropping System Model Ver. 4.8.0.019 -develop  JAN 07, 2022 20:10:06

*RUN   2        : TMEB419                   CSYCA048 UYAG1701    5
 MODEL          : CSYCA048 - Cassava
 EXPERIMENT     : UYAG1701 CS UYT_GXE
 DATA PATH      :
 TREATMENT  5   : TMEB419                   CSYCA048
  
!                                                                                                 Soil water content (mm3/mm3) by soil depth (cm):
!                                                                                                 0-5    5-15   15-20   20-25   25-30   30-35   35-40   40-55   55-70  70-120
@YEAR DOY   DAS  SWTD  SWXD   ROFC   DRNC   PREC  IR#C  IRRC  DTWT    MWTD  TDFD  TDFC   ROFD    SW1D    SW2D    SW3D    SW4D    SW5D    SW6D    SW7D    SW8D    SW9D    SW10
 2019 168     0   386   158      0      0      0     0     0     0    0.00   0.0   0.0   0.00   0.330   0.335   0.320   0.320   0.310   0.330   0.330   0.320   0.320   0.320
 2019 169     1   385   157      0      0      0     0     0    60    0.00   0.0   0.0   0.00   0.304   0.333   0.319   0.320   0.310   0.330   0.330   0.320   0.320   0.320
 2019 170     2   389   161      0      0     10     0     0   120    0.00   0.0   0.0   0.03   0.345   0.347   0.342   0.333   0.318   0.333   0.331   0.318   0.319   0.318
 2019 171     3   386   158      0      0     11     0     0   120    0.00   0.0   0.0   0.00   0.321   0.334   0.332   0.331   0.319   0.336   0.333   0.319   0.317   0.316
 2019 172     4   380   152      0      0     11     0     0   120    0.00   0.0   0.0   0.00   0.297   0.324   0.318   0.319   0.309   0.328   0.327   0.317   0.318   0.317
 2019 173     5   382   154      0      0     17     0     0   120    0.00   0.0   0.0   0.00   0.341   0.331   0.319   0.318   0.308   0.327   0.325   0.315   0.316   0.315
 2019 174     6   377   149      0      0     17     0     0   120    0.00   0.0   0.0   0.00   0.312   0.326   0.314   0.314   0.304   0.323   0.321   0.312   0.313   0.313
 2019 175     7   386   158      0      0     30     0     0   120    0.00   0.0   0.0   0.29   0.348   0.359   0.353   0.340   0.320   0.333   0.328   0.310   0.311   0.312
 2019 176     8   381   153      0      0     30     0     0   120    0.00   0.0   0.0   0.00   0.313   0.334   0.326   0.322   0.310   0.329   0.327   0.317   0.318   0.315
 2019 177     9   378   150      0      0     31     0     0   120    0.00   0.0   0.0   0.00   0.313   0.328   0.317   0.318   0.308   0.328   0.324   0.315   0.316   0.313
 2019 178    10   376   148      0      0     31     0     0   120    0.00   0.0   0.0   0.00   0.288   0.326   0.316   0.318   0.308   0.328   0.324   0.315   0.316   0.313
 2019 179    11   375   147      0      0     31     0     0   120    0.00   0.0   0.0   0.00   0.266   0.325   0.316   0.317   0.307   0.328   0.323   0.315   0.316   0.313
 2019 180    12   374   146      0      0     31     0     0   120    0.00   0.0   0.0   0.00   0.247   0.323   0.315   0.317   0.307   0.328   0.323   0.315   0.316   0.313
 2019 181    13   380   152      0      0     39     0     0   120    0.00   0.0   0.0   0.00   0.334   0.336   0.321   0.320   0.307   0.327   0.323   0.315   0.316   0.313
 2019 182    14   379   151      0      0     43     0     0   120    0.00   0.0   0.0   0.00   0.342   0.335   0.327   0.323   0.310   0.328   0.323   0.312   0.313   0.311
 2019 183    15   374   146      0      0     43     0     0   120    0.00   0.0   0.0   0.00   0.310   0.326   0.316   0.316   0.306   0.326   0.326   0.311   0.311   0.309
 2019 184    16   375   147      0      0     45     0     0   120    0.00   0.0   0.0   0.00   0.317   0.333   0.316   0.316   0.306   0.326   0.326   0.311   0.311   0.309
 2019 185    17   393   165      3      0     71     0     0   120    0.00   0.0   0.0   3.04   0.349   0.359   0.353   0.354   0.348   0.361   0.362   0.328   0.321   0.311
 2019 186    18   399   171      4      0     81     0     0   120    0.00   0.0   0.0   0.24   0.348   0.359   0.352   0.353   0.348   0.361   0.361   0.336   0.331   0.320
 2019 187    19   394   166      4      0     82     0     0   120    0.00   0.0   0.0   0.00   0.319   0.337   0.340   0.343   0.337   0.357   0.358   0.330   0.330   0.323
 2019 188    20   400   172      4      0     92     0     0   120    0.00   0.0   0.0   0.07   0.350   0.353   0.353   0.351   0.339   0.357   0.357   0.327   0.328   0.323
 2019 189    21   396   168      4      1     94     0     0   119    0.00   0.0   0.0   0.00   0.334   0.339   0.342   0.344   0.335   0.355   0.355   0.326   0.326   0.323
 2019 190    22   391   163      4      3     94     0     0   120    0.00   0.0   0.0   0.00   0.313   0.329   0.325   0.330   0.324   0.347   0.349   0.324   0.325   0.322
 2019 191    23   386   158      4      4     96     0     0   120    0.00   0.0   0.0   0.00   0.311   0.321   0.315   0.319   0.313   0.337   0.340   0.322   0.322   0.321
 2019 192    24   384   156      4      4     98     0     0   120    0.00   0.0   0.0   0.00   0.321   0.321   0.310   0.315   0.307   0.330   0.333   0.320   0.320   0.320
 2019 193    25   397   169      5      4    117     0     0   120    0.00   0.0   0.0   1.16   0.351   0.359   0.352   0.353   0.345   0.351   0.344   0.321   0.321   0.321
 2019 194    26   386   158      5     11    117     0     0   120    0.00   0.0   0.0   0.00   0.314   0.333   0.324   0.326   0.317   0.333   0.332   0.319   0.319   0.319
 2019 195    27   398   170      6     11    135     0     0   120    0.00   0.0   0.0   1.19   0.349   0.358   0.352   0.353   0.347   0.361   0.358   0.324   0.322   0.320
 2019 196    28   401   173      6     11    143     0     0   120    0.00   0.0   0.0   0.06   0.350   0.357   0.352   0.353   0.347   0.361   0.361   0.330   0.327   0.322
 2019 197    29   395   167      6     13    143     0     0   120    0.00   0.0   0.0   0.00   0.317   0.335   0.337   0.341   0.335   0.356   0.357   0.328   0.327   0.322
 2019 198    30   390   162      6     14    145     0     0   120    0.00   0.0   0.0   0.00   0.315   0.326   0.321   0.326   0.321   0.345   0.348   0.325   0.325   0.322
 2019 199    31   383   155      6     17    145     0     0   120    0.00   0.0   0.0   0.00   0.297   0.318   0.315   0.317   0.309   0.331   0.333   0.320   0.320   0.321
 2019 200    32   392   164      6     17    158     0     0   120    0.00   0.0   0.0   0.13   0.353   0.351   0.344   0.333   0.317   0.334   0.333   0.319   0.321   0.319
 2019 201    33   388   160      6     17    159     0     0   120    0.00   0.0   0.0   0.00   0.324   0.334   0.333   0.332   0.319   0.336   0.334   0.319   0.320   0.320
 2019 202    34   382   154      6     17    159     0     0   120    0.00   0.0   0.0   0.00   0.303   0.324   0.317   0.318   0.307   0.327   0.327   0.318   0.318   0.319
 2019 203    35   381   153      6     17    161     0     0   120    0.00   0.0   0.0   0.00   0.306   0.322   0.314   0.315   0.305   0.325   0.326   0.317   0.318   0.319
 2019 204    36   379   151      6     17    161     0     0   120    0.00   0.0   0.0   0.00   0.291   0.316   0.310   0.311   0.302   0.323   0.324   0.317   0.318   0.318
 2019 205    37   377   149      6     17    161     0     0   120    0.00   0.0   0.0   0.00   0.268   0.311   0.306   0.308   0.299   0.320   0.322   0.316   0.318   0.318
 2019 206    38   381   153      6     17    168     0     0   120    0.00   0.0   0.0   0.00   0.334   0.327   0.302   0.304   0.296   0.318   0.321   0.316   0.318   0.318
 2019 207    39   377   149      6     17    169     0     0   120    0.00   0.0   0.0   0.00   0.318   0.322   0.296   0.299   0.291   0.314   0.317   0.314   0.317   0.317
 2019 208    40   374   146      6     17    169     0     0   120    0.00   0.0   0.0   0.00   0.288   0.316   0.292   0.296   0.288   0.311   0.315   0.313   0.317   0.317
 2019 209    41   372   144      6     17    169     0     0   120    0.00   0.0   0.0   0.00   0.261   0.310   0.287   0.292   0.285   0.308   0.313   0.312   0.317   0.317
 2019 210    42   369   141      6     17    169     0     0   120    0.00   0.0   0.0   0.00   0.239   0.304   0.283   0.288   0.281   0.305   0.311   0.312   0.317   0.317
[...]
 2020 096   293   288    60    343    559   1543    13   343   120    0.08   0.0   0.0   0.00   0.223   0.302   0.300   0.297   0.290   0.254   0.194   0.205   0.211   0.232
 2020 097   294   289    61    343    559   1546    13   343   120    0.33   0.0   0.0   0.00   0.252   0.297   0.297   0.294   0.287   0.253   0.194   0.205   0.211   0.232
 2020 098   295   287    59    343    559   1546    13   343   120    0.24   0.0   0.0   0.00   0.232   0.292   0.293   0.291   0.284   0.252   0.193   0.205   0.211   0.232
 2020 099   296   285    57    343    559   1546    13   343   120    0.18   0.0   0.0   0.00   0.216   0.287   0.290   0.288   0.282   0.252   0.193   0.205   0.211   0.232
 2020 100   297   283    55    343    559   1546    13   343   120    0.13   0.0   0.0   0.00   0.200   0.282   0.286   0.285   0.279   0.251   0.193   0.205   0.211   0.232
 2020 101   298   304    76    343    559   1571    13   343   120    0.34   0.0   0.0   0.00   0.351   0.356   0.349   0.333   0.306   0.252   0.191   0.203   0.210   0.230
 2020 102   299   301    73    343    559   1573    13   343   120    0.27   0.0   0.0   0.00   0.327   0.337   0.339   0.335   0.317   0.273   0.190   0.201   0.209   0.229
 2020 103   300   296    68    343    559   1573    13   343   120    0.29   0.0   0.0   0.00   0.303   0.324   0.318   0.322   0.312   0.284   0.188   0.200   0.207   0.228
 2020 104   301   291    63    343    559   1573    13   343   120    0.21   0.0   0.0   0.00   0.278   0.312   0.309   0.315   0.306   0.278   0.186   0.198   0.206   0.226
 2020 105   302   289    61    343    559   1573    13   343   120    0.15   0.0   0.0   0.00   0.254   0.308   0.306   0.312   0.304   0.277   0.186   0.198   0.206   0.226
 2020 106   303   287    59    343    559   1573    13   343   120    0.11   0.0   0.0   0.00   0.234   0.303   0.303   0.309   0.301   0.275   0.186   0.198   0.206   0.226
 2020 107   304   285    57    343    559   1573    13   343   120    0.08   0.0   0.0   0.00   0.217   0.299   0.300   0.307   0.299   0.273   0.186   0.198   0.206   0.226
 2020 108   305   283    55    343    559   1573    13   343   120    0.09   0.0   0.0   0.00   0.203   0.294   0.297   0.304   0.297   0.270   0.186   0.198   0.205   0.226
 2020 109   306   282    54    343    559   1573    13   343   120    0.07   0.0   0.0   0.00   0.189   0.290   0.294   0.302   0.295   0.269   0.186   0.198   0.205   0.226
 2020 110   307   280    52    343    559   1573    13   343   120    0.05   0.0   0.0   0.00   0.177   0.286   0.291   0.299   0.292   0.268   0.186   0.198   0.205   0.226
 2020 111   308   279    51    343    559   1573    13   343   120    0.04   0.0   0.0   0.00   0.166   0.281   0.289   0.297   0.290   0.266   0.186   0.198   0.205   0.226
 2020 112   309   277    49    343    559   1573    13   343   120    0.03   0.0   0.0   0.00   0.155   0.277   0.285   0.294   0.288   0.265   0.186   0.198   0.205   0.226
 2020 113   310   276    48    343    559   1573    13   343   120    0.02   0.0   0.0   0.00   0.146   0.273   0.283   0.292   0.286   0.264   0.186   0.198   0.205   0.226
 2020 114   311   275    47    343    559   1574    13   343   120    0.17   0.0   0.0   0.00   0.144   0.269   0.280   0.289   0.284   0.263   0.186   0.198   0.205   0.226
 2020 115   312   299    71    343    559   1574    14   369   120    0.13   0.0   0.0   0.00   0.352   0.358   0.338   0.320   0.287   0.262   0.186   0.198   0.205   0.226
 2020 116   313   300    72    343    559   1580    14   369   120    0.34   0.0   0.0   0.00   0.347   0.350   0.351   0.340   0.314   0.275   0.184   0.196   0.204   0.225
 2020 117   314   301    73    343    559   1585    14   369   120    0.27   0.0   0.0   0.00   0.347   0.342   0.346   0.343   0.325   0.309   0.183   0.195   0.203   0.224
 2020 118   315   297    69    343    559   1585    14   369   120    0.35   0.0   0.0   0.00   0.318   0.331   0.329   0.332   0.322   0.330   0.189   0.194   0.202   0.223
 2020 119   316   293    65    343    559   1586    14   369   120    0.31   0.0   0.0   0.00   0.300   0.320   0.316   0.320   0.313   0.330   0.197   0.192   0.201   0.222
 2020 120   317   293    65    343    559   1590    14   369   120    0.34   0.0   0.0   0.00   0.332   0.325   0.312   0.314   0.307   0.325   0.195   0.191   0.199   0.221
 2020 121   318   302    74    343    559   1603    14   369   120    0.32   0.0   0.0   0.00   0.348   0.358   0.352   0.342   0.322   0.335   0.211   0.190   0.198   0.220
 2020 122   319   307    79    343    559   1613    14   369   120    0.33   0.0   0.0   0.00   0.347   0.358   0.351   0.352   0.347   0.359   0.273   0.188   0.197   0.219
 2020 123   320   303    75    343    559   1613    14   369   120    0.24   0.0   0.0   0.00   0.313   0.333   0.324   0.325   0.318   0.335   0.327   0.210   0.196   0.218
 2020 124   321   304    76    343    559   1619    14   369   120    0.35   0.0   0.0   0.00   0.350   0.335   0.327   0.325   0.315   0.334   0.330   0.211   0.195   0.217
 2020 125   322   303    75    343    559   1622    14   369   120    0.30   0.0   0.0   0.00   0.342   0.334   0.327   0.325   0.314   0.332   0.331   0.212   0.194   0.216
 2020 126   323   299    71    343    559   1622    14   369   120    0.22   0.0   0.0   0.00   0.311   0.325   0.316   0.316   0.306   0.328   0.327   0.216   0.193   0.214
 2020 127   324   297    69    343    559   1622    14   369   120    0.16   0.0   0.0   0.00   0.284   0.321   0.313   0.314   0.305   0.326   0.326   0.216   0.193   0.214
 2020 128   325   295    67    343    559   1623    14   369   120    0.18   0.0   0.0   0.00   0.264   0.318   0.311   0.312   0.303   0.325   0.325   0.216   0.193   0.214
 2020 129   326   293    65    343    559   1623    14   369   120    0.13   0.0   0.0   0.00   0.243   0.314   0.309   0.310   0.302   0.324   0.324   0.216   0.193   0.214
 2020 130   327   298    70    343    559   1630    14   369   120    0.34   0.0   0.0   0.00   0.331   0.327   0.307   0.308   0.300   0.322   0.323   0.216   0.193   0.214
 2020 131   328   300    72    343    559   1635    14   369   120    0.27   0.0   0.0   0.00   0.349   0.335   0.321   0.316   0.295   0.318   0.319   0.215   0.192   0.213
 2020 132   329   296    68    343    559   1636    14   369   120    0.35   0.0   0.0   0.00   0.322   0.329   0.318   0.316   0.294   0.313   0.316   0.213   0.191   0.212
 2020 133   330   294    66    343    559   1636    14   369   120    0.25   0.0   0.0   0.00   0.295   0.326   0.316   0.315   0.292   0.312   0.315   0.213   0.191   0.212
 2020 134   331   294    66    343    559   1638    14   369   120    0.36   0.0   0.0   0.00   0.305   0.323   0.314   0.313   0.291   0.311   0.314   0.213   0.191   0.212
 2020 135   332   292    64    343    559   1638    14   369   120    0.26   0.0   0.0   0.00   0.280   0.320   0.312   0.311   0.289   0.310   0.313   0.213   0.191   0.212
 2020 136   333   300    72    343    559   1651    14   369   120    0.36   0.0   0.0   0.00   0.350   0.346   0.337   0.327   0.308   0.305   0.310   0.212   0.190   0.211
 2020 137   334   297    69    343    559   1651    14   369   120    0.30   0.0   0.0   0.00   0.323   0.333   0.329   0.327   0.313   0.315   0.306   0.210   0.189   0.211
 2020 138   335   292    64    343    559   1651    14   369   120    0.22   0.0   0.0   0.00   0.300   0.323   0.316   0.317   0.308   0.321   0.302   0.209   0.188   0.209
 2020 139   336   292    64    343    559   1653    14   369   120    0.36   0.0   0.0   0.00   0.305   0.321   0.314   0.315   0.306   0.320   0.301   0.209   0.188   0.209
 2020 140   337   290    62    343    559   1654    14   369   120    0.30   0.0   0.0   0.00   0.285   0.317   0.312   0.313   0.305   0.319   0.301   0.209   0.188   0.209
 2020 141   338   296    68    343    559   1661    14   369   120    0.35   0.0   0.0   0.00   0.344   0.338   0.323   0.321   0.304   0.317   0.300   0.209   0.188   0.209
 2020 142   339   328   100    346    559   1700    14   369   120    0.32   0.0   0.0   3.06   0.351   0.360   0.353   0.353   0.348   0.361   0.362   0.325   0.199   0.209
 2020 143   340   333   105    346    559   1709    14   369   120    0.34   0.0   0.0   0.00   0.353   0.360   0.353   0.354   0.348   0.361   0.362   0.332   0.226   0.208
 2020 144   341   332   104    346    559   1713    14   369   120    0.33   0.0   0.0   0.00   0.348   0.345   0.349   0.350   0.341   0.360   0.360   0.329   0.246   0.207
 2020 145   342   340   112    346    559   1724    14   369   120    0.34   0.0   0.0   0.00   0.353   0.360   0.353   0.354   0.348   0.361   0.362   0.333   0.275   0.206
 2020 146   343   336   108    346    559   1724    14   369   120    0.33   0.0   0.0   0.00   0.324   0.339   0.342   0.345   0.338   0.358   0.359   0.329   0.295   0.206
 2020 147   344   333   105    346    559   1725    14   369   120    0.34   0.0   0.0   0.00   0.313   0.328   0.324   0.330   0.325   0.349   0.351   0.326   0.308   0.205
 2020 148   345   329   101    346    559   1725    14   369   120    0.33   0.0   0.0   0.00   0.301   0.321   0.316   0.320   0.314   0.338   0.342   0.323   0.316   0.204
 2020 149   346   352   124    346    559   1752    14   369   120    0.34   0.0   0.0   0.25   0.352   0.360   0.353   0.354   0.348   0.361   0.362   0.343   0.333   0.220
 2020 150   347   359   131    346    559   1763    14   369   120    0.33   0.0   0.0   0.00   0.352   0.360   0.353   0.354   0.348   0.361   0.362   0.342   0.339   0.242
 2020 151   348   356   128    346    559   1764    14   369   120    0.34   0.0   0.0   0.00   0.334   0.342   0.345   0.347   0.340   0.359   0.359   0.332   0.334   0.259
 2020 152   349   354   126    346    559   1766    14   369   120    0.34   0.0   0.0   0.00   0.326   0.333   0.331   0.335   0.329   0.351   0.353   0.328   0.329   0.271
 2020 153   350   405   177    366    559   1840    14   369   120    0.34   0.0   0.0  19.97   0.357   0.362   0.354   0.355   0.349   0.362   0.362   0.346   0.346   0.347
 2020 154   351   405   177    366    559   1845    14   369   120    0.34   0.0   0.0   0.00   0.353   0.350   0.353   0.354   0.347   0.361   0.362   0.335   0.338   0.336
 2020 155   352   402   174    366    562   1848    14   369   119    0.34   0.0   0.0   0.00   0.347   0.341   0.345   0.347   0.339   0.359   0.359   0.330   0.332   0.330
 2020 156   353   388   160    366    572   1848    14   369   120    0.24   0.0   0.0   0.00   0.319   0.330   0.324   0.325   0.317   0.337   0.337   0.321   0.322   0.322
 2020 157   354   384   156    366    572   1849    14   369   120    0.36   0.0   0.0   0.00   0.311   0.323   0.316   0.318   0.310   0.331   0.333   0.319   0.320   0.320
 2020 158   355   384   156    366    572   1852    14   369   120    0.30   0.0   0.0   0.00   0.330   0.326   0.312   0.315   0.307   0.328   0.330   0.317   0.318   0.318
 2020 159   356   380   152    366    572   1852    14   369   120    0.22   0.0   0.0   0.00   0.312   0.319   0.307   0.310   0.303   0.325   0.327   0.315   0.316   0.317
 2020 160   357   396   168    366    572   1871    14   369   120    0.36   0.0   0.0   0.00   0.355   0.361   0.354   0.354   0.349   0.355   0.345   0.320   0.318   0.316
 2020 161   358   387   159    366    577   1871    14   369   120    0.26   0.0   0.0   0.00   0.322   0.337   0.327   0.328   0.320   0.335   0.332   0.318   0.318   0.319
 2020 162   359   384   156    366    577   1872    14   369   120    0.37   0.0   0.0   0.00   0.316   0.329   0.319   0.321   0.314   0.333   0.332   0.319   0.316   0.317
 2020 163   360   380   152    366    577   1872    14   369   120    0.26   0.0   0.0   0.00   0.302   0.323   0.315   0.318   0.308   0.328   0.330   0.318   0.315   0.316
 2020 164   361   378   150    366    577   1872    14   369   120    0.19   0.0   0.0   0.00   0.278   0.320   0.314   0.317   0.307   0.327   0.329   0.318   0.314   0.316
 2020 165   362   410   182    369    579   1912    14   369   119    0.36   0.0   0.0   2.56   0.357   0.362   0.354   0.355   0.349   0.362   0.362   0.346   0.346   0.328
 2020 166   363   391   163    369    594   1912    14   369   120    0.26   0.0   0.0   0.00   0.323   0.338   0.327   0.328   0.320   0.338   0.339   0.327   0.327   0.321
 2020 167   364   387   159    369    595   1912    14   369   120    0.22   0.0   0.0   0.00   0.309   0.331   0.318   0.321   0.313   0.334   0.335   0.322   0.323   0.321
 2020 168   365   383   155    369    595   1912    14   369   120    0.29   0.0   0.0   0.00   0.298   0.323   0.313   0.316   0.307   0.328   0.330   0.319   0.320   0.320
 2020 169   366   383   155    369    595   1915    14   369   120    0.32   0.0   0.0   0.00   0.310   0.324   0.311   0.315   0.306   0.328   0.329   0.318   0.320   0.319
 2020 170   367   384   156    369    595   1919    14   369   120    0.33   0.0   0.0   0.00   0.339   0.331   0.316   0.311   0.303   0.325   0.327   0.316   0.318   0.318
 2020 171   368   381   153    369    595   1920    14   369   120    0.34   0.0   0.0   0.00   0.324   0.329   0.317   0.307   0.300   0.321   0.324   0.314   0.316   0.317
 2020 172   369   379   151    369    595   1920    14   369   120    0.27   0.0   0.0   0.00   0.299   0.326   0.315   0.306   0.299   0.320   0.323   0.314   0.315   0.316
 2020 173   370   378   150    369    595   1922    14   369   120    0.36   0.0   0.0   0.00   0.305   0.324   0.314   0.305   0.298   0.320   0.323   0.313   0.315   0.316
 2020 174   371   381   153    369    595   1929    14   369   120    0.32   0.0   0.0   0.00   0.355   0.336   0.323   0.316   0.295   0.317   0.320   0.311   0.313   0.315
 2020 175   372   378   150    369    595   1929    14   369   120    0.29   0.0   0.0   0.00   0.324   0.331   0.320   0.318   0.295   0.313   0.317   0.309   0.311   0.313
 2020 176   373   377   149    369    595   1932    14   369   120    0.35   0.0   0.0   0.00   0.337   0.333   0.321   0.319   0.297   0.311   0.315   0.307   0.310   0.312
 2020 177   374   374   146    369    595   1932    14   369   120    0.25   0.0   0.0   0.00   0.315   0.328   0.316   0.315   0.294   0.307   0.312   0.305   0.308   0.311
 2020 178   375   372   144    369    595   1932    14   369   120    0.28   0.0   0.0   0.00   0.294   0.325   0.315   0.314   0.293   0.307   0.311   0.304   0.307   0.310
 2020 179   376   370   142    369    595   1932    14   369   120    0.20   0.0   0.0   0.00   0.270   0.322   0.313   0.313   0.292   0.306   0.311   0.304   0.307   0.310
 2020 180   377   377   149    369    595   1943    14   369   120    0.36   0.0   0.0   0.00   0.356   0.342   0.331   0.324   0.303   0.303   0.308   0.302   0.305   0.309
 2020 181   378   376   148    369    595   1945    14   369   120    0.29   0.0   0.0   0.00   0.349   0.340   0.334   0.330   0.313   0.312   0.306   0.300   0.304   0.308
 2020 182   379   378   150    369    595   1951    14   369   120    0.36   0.0   0.0   0.00   0.356   0.344   0.340   0.336   0.321   0.330   0.309   0.298   0.302   0.307
 2020 183   380   375   147    369    595   1951    14   369   120    0.32   0.0   0.0   0.00   0.327   0.335   0.331   0.332   0.320   0.336   0.323   0.296   0.300   0.305
 2020 184   381   371   143    369    595   1951    14   369   120    0.33   0.0   0.0   0.00   0.315   0.328   0.319   0.322   0.314   0.334   0.329   0.295   0.299   0.304
 2020 185   382   389   161    369    595   1973    14   369   120    0.34   0.0   0.0   0.00   0.357   0.362   0.354   0.355   0.349   0.362   0.362   0.322   0.304   0.303
 2020 186   383   391   163    369    595   1977    14   369   120    0.34   0.0   0.0   0.00   0.357   0.351   0.354   0.355   0.346   0.362   0.363   0.327   0.319   0.302
 2020 187   384   390   162    369    595   1979    14   369   120    0.34   0.0   0.0   0.00   0.345   0.342   0.345   0.347   0.340   0.360   0.360   0.328   0.324   0.307
 2020 188   385   386   158    369    595   1980    14   369   120    0.34   0.0   0.0   0.00   0.324   0.333   0.330   0.335   0.329   0.352   0.354   0.326   0.325   0.313
 2020 189   386   386   158    369    595   1983    14   369   120    0.34   0.0   0.0   0.00   0.340   0.334   0.327   0.329   0.322   0.344   0.347   0.324   0.324   0.319
 2020 190   387   383   155    369    595   1983    14   369   120    0.24   0.0   0.0   0.00   0.318   0.328   0.318   0.319   0.311   0.332   0.333   0.319   0.320   0.319
 2020 191   388   380   152    369    595   1983    14   369   120    0.21   0.0   0.0   0.00   0.305   0.322   0.314   0.316   0.308   0.329   0.329   0.318   0.318   0.317
 2020 192   389   419   191    384    605   2051    14   369   114    0.35   0.0   0.0  15.39   0.357   0.362   0.354   0.355   0.349   0.362   0.362   0.346   0.346   0.347
 2020 193   390   408   180    384    613   2052    14   369   115    0.30   0.0   0.0   0.00   0.333   0.343   0.346   0.348   0.341   0.361   0.361   0.334   0.338   0.336
 2020 194   391   391   163    384    627   2052    14   369   118    0.22   0.0   0.0   0.00   0.317   0.332   0.325   0.326   0.318   0.338   0.338   0.323   0.325   0.324
 2020 195   392   384   156    384    630   2052    14   369   120    0.15   0.0   0.0   0.00   0.303   0.325   0.317   0.319   0.310   0.330   0.330   0.319   0.320   0.320
 2020 196   393   390   162    384    630   2061    14   369   120    0.36   0.0   0.0   0.00   0.357   0.345   0.336   0.329   0.315   0.332   0.331   0.319   0.318   0.319
 2020 197   394   385   157    384    632   2061    14   369   120    0.26   0.0   0.0   0.00   0.326   0.333   0.322   0.320   0.309   0.330   0.329   0.318   0.318   0.319
 2020 198   395   387   159    384    632   2066    14   369   120    0.37   0.0   0.0   0.00   0.356   0.338   0.328   0.325   0.312   0.330   0.329   0.317   0.317   0.318
 2020 199   396   386   158    384    632   2068    14   369   120    0.31   0.0   0.0   0.00   0.341   0.337   0.329   0.326   0.314   0.332   0.331   0.317   0.315   0.317
 2020 200   397   396   168    384    632   2081    14   369   120    0.36   0.0   0.0   0.00   0.356   0.362   0.354   0.355   0.348   0.354   0.345   0.321   0.319   0.315
 2020 201   398   398   170    384    632   2087    14   369   120    0.33   0.0   0.0   0.00   0.358   0.354   0.355   0.355   0.349   0.362   0.357   0.325   0.323   0.319
 2020 202   399   395   167    384    632   2087    14   369   120    0.30   0.0   0.0   0.00   0.329   0.339   0.341   0.345   0.339   0.359   0.358   0.327   0.325   0.321
 2020 203   400   387   159    384    637   2087    14   369   120    0.22   0.0   0.0   0.00   0.316   0.331   0.323   0.325   0.317   0.338   0.337   0.320   0.320   0.320
 2020 204   401   387   159    384    637   2091    14   369   120    0.37   0.0   0.0   0.00   0.339   0.333   0.322   0.323   0.313   0.334   0.335   0.320   0.319   0.320
 2020 205   402   383   155    384    637   2091    14   369   120    0.30   0.0   0.0   0.00   0.319   0.330   0.318   0.319   0.308   0.329   0.330   0.319   0.318   0.318
 2020 206   403   381   153    384    637   2091    14   369   120    0.36   0.0   0.0   0.00   0.312   0.324   0.314   0.315   0.305   0.326   0.328   0.317   0.316   0.317
 2020 207   404   379   151    384    637   2092    14   369   120    0.32   0.0   0.0   0.00   0.289   0.321   0.313   0.314   0.304   0.326   0.327   0.317   0.316   0.317
 2020 208   405   377   149    384    637   2092    14   369   120    0.27   0.0   0.0   0.00   0.268   0.318   0.311   0.313   0.303   0.325   0.327   0.317   0.315   0.317
 2020 209   406   376   148    384    637   2092    14   369   120    0.36   0.0   0.0   0.00   0.257   0.316   0.310   0.312   0.302   0.324   0.326   0.316   0.315   0.317
