*Soil Carbon Balance Summary

*DSSAT Cropping System Model Ver. 4.8.0.019 -develop  APR 08, 2023 12:34:37
!                             <----------- Initial State Variables ----------><------------ Final State Variables -----------><------------ Added -----------><-Lost-><-Balance>
!                             <-------- SOM-C -------><-------- FOM-C -------><-------- SOM-C -------><-------- FOM-C -------><---OM---><Senesced><--HarvRes-><--CO2->
!                                     Surf        Soil        Surf        Soil        Surf        Soil        Surf        Soil 
@Run FILEX               TN CR       SC0Di      SOMCTi       LC0Di       LCTDi        SC0D       SOMCT        LC0D        LCTD      OMAC     SENCC      HRCH     CO2TC    CUMBAL
   2 UYAG1701.CSX         1 CS        0.00   203050.50        0.00        0.00        0.00   201086.89      332.34      288.20      0.00    620.54      0.00   1963.54     -0.06
   8 UYIB2001.CSX         1 CS        0.00   109485.50        0.00        0.00        0.00   107636.39      368.60      322.24      0.00    690.83      0.00   1849.10     -0.02
  12 UYKA1801.CSX         1 CS        0.00   129158.00        0.00        0.00        0.00   126311.09      430.13      375.46      0.00    805.60      0.00   2846.93      0.02
  14 UYMO1801.CSX         1 CS        0.00   134089.00        0.00        0.00        0.00   131903.22      335.36      352.85      0.00    688.21      0.00   2185.78     -0.02
  17 UYOT1801.CSX         1 CS        0.00    40729.50        0.00        0.00        0.00    40122.77      446.59      383.97      0.00    830.55      0.00    606.72     -0.01
  19 UYUM1801.CSX         1 CS        0.00   171440.00        0.00        0.00        0.00   169203.81      360.25      357.16      0.00    717.42      0.00   2236.17     -0.03
