*Soil Organic Matter daily output file

*DSSAT Cropping System Model Ver. 4.8.0.019 -develop  APR 08, 2023 12:34:37

*RUN   2        : IITA-TMS-IBA000070        CSYCA048 UYAG1701    1
 MODEL          : CSYCA048 - Cassava
 EXPERIMENT     : UYAG1701 CS UYT_GXE
 DATA PATH      :
 TREATMENT  1   : IITA-TMS-IBA000070        CSYCA048
  
@YEAR DOY   DAS    OMAC    SCDD    SOCD    SC0D    SCTD   SOMCT    LCTD    ONAC    SNDD    SOND    SN0D    SNTD   SOMNT    LNTD
 2017 240     0       0   24627  203051       0  203051  203051     0.0    0.00     0.0     0.0    0.00     0.0     0.0    0.00
 2017 241     1       0   24627  203043       0  203043  203043     0.0    0.00     0.0     0.0    0.00     0.0     0.0    0.00
 2017 242     2       0   24626  203035       0  203035  203035     0.0    0.00     0.0     0.0    0.00     0.0     0.0    0.00
 2017 243     3       0   24625  203028       0  203028  203028     0.0    0.00     0.0     0.0    0.00     0.0     0.0    0.00
 2017 244     4       0   24624  203020       0  203020  203020     0.0    0.00     0.0     0.0    0.00     0.0     0.0    0.00
 2017 245     5       0   24623  203013       0  203013  203013     0.0    0.00     0.0     0.0    0.00     0.0     0.0    0.00
 2017 246     6       0   24623  203005       0  203005  203005     0.0    0.00     0.0     0.0    0.00     0.0     0.0    0.00
 2017 247     7       0   24622  202998       0  202998  202998     0.0    0.00     0.0     0.0    0.00     0.0     0.0    0.00
 2017 248     8       0   24621  202990       0  202990  202990     0.0    0.00     0.0     0.0    0.00     0.0     0.0    0.00
 2017 249     9       0   24620  202982       0  202982  202982     0.0    0.00     0.0     0.0    0.00     0.0     0.0    0.00
 2017 250    10       0   24619  202975       0  202975  202975     0.0    0.00     0.0     0.0    0.00     0.0     0.0    0.00
 2017 251    11       0   24619  202967       0  202967  202967     0.0    0.00     0.0     0.0    0.00     0.0     0.0    0.00
 2017 252    12       0   24618  202959       0  202959  202959     0.0    0.00     0.0     0.0    0.00     0.0     0.0    0.00
 2017 253    13       0   24617  202951       0  202951  202951     0.0    0.00     0.0     0.0    0.00     0.0     0.0    0.00
 2017 254    14       0   24616  202943       0  202943  202943     0.0    0.00     0.0     0.0    0.00     0.0     0.0    0.00
 2017 255    15       0   24615  202936       0  202936  202936     0.0    0.00     0.0     0.0    0.00     0.0     0.0    0.00
 2017 256    16       0   24614  202928       0  202928  202928     0.0    0.00     0.0     0.0    0.00     0.0     0.0    0.00
 2017 257    17       0   24614  202920       0  202920  202920     0.0    0.00     0.0     0.0    0.00     0.0     0.0    0.00
 2017 258    18       0   24613  202912       0  202912  202912     0.0    0.00     0.0     0.0    0.00     0.0     0.0    0.00
 2017 259    19       0   24612  202904       0  202904  202904     0.0    0.00     0.0     0.0    0.00     0.0     0.0    0.00
 2017 260    20       0   24611  202897       0  202897  202897     0.0    0.00     0.0     0.0    0.00     0.0     0.0    0.00
 2017 261    21       0   24610  202889       0  202889  202889     0.1    0.00     0.0     0.0    0.00     0.0     0.0    0.00
 2017 262    22       0   24609  202881       0  202881  202881     0.1    0.00     0.0     0.0    0.00     0.0     0.0    0.00
 2017 263    23       0   24609  202873       0  202873  202873     0.1    0.00     0.0     0.0    0.00     0.0     0.0    0.00
 2017 264    24       0   24608  202866       0  202866  202866     0.2    0.00     0.0     0.0    0.00     0.0     0.0    0.00
 2017 265    25       0   24607  202858       0  202858  202858     0.2    0.00     0.0     0.0    0.00     0.0     0.0    0.00
 2017 266    26       0   24606  202850       0  202850  202850     0.3    0.00     0.0     0.0    0.00     0.0     0.0    0.00
 2017 267    27       0   24605  202842       0  202842  202842     0.4    0.00     0.0     0.0    0.00     0.0     0.0    0.00
 2017 268    28       0   24605  202835       0  202835  202834     0.4    0.00     0.0     0.0    0.00     0.0     0.0    0.00
 2017 269    29       0   24604  202827       0  202827  202826     0.5    0.00     0.0     0.0    0.00     0.0     0.0    0.00
 2017 270    30       0   24603  202819       0  202819  202819     0.6    0.00     0.0     0.0    0.00     0.0     0.0    0.00
 2017 271    31       0   24602  202811       0  202811  202811     0.7    0.00     0.0     0.0    0.00     0.0     0.0    0.00
 2017 272    32       0   24601  202804       0  202804  202803     0.8    0.00     0.0     0.0    0.00     0.0     0.0    0.00
 2017 273    33       0   24600  202796       0  202796  202795     0.9    0.00     0.0     0.0    0.00     0.0     0.0    0.00
 2017 274    34       0   24600  202788       0  202788  202787     1.0    0.00     0.0     0.0    0.00     0.0     0.0    0.00
 2017 275    35       0   24599  202780       0  202780  202779     1.1    0.00     0.0     0.0    0.00     0.0     0.0    0.00
 2017 276    36       0   24598  202773       0  202773  202771     1.2    0.00     0.0     0.0    0.00     0.0     0.0    0.00
 2017 277    37       0   24597  202765       0  202765  202763     1.3    0.00     0.0     0.0    0.00     0.0     0.0    0.00
 2017 278    38       0   24596  202756       0  202756  202755     1.4    0.00     0.0     0.0    0.00     0.0     0.0    0.00
 2017 279    39       0   24595  202749       0  202749  202747     1.6    0.00     0.0     0.0    0.00     0.0     0.0    0.00
 2017 280    40       0   24594  202741       0  202741  202739     1.7    0.00     0.0     0.0    0.00     0.0     0.0    0.00
 2017 281    41       0   24594  202733       0  202733  202731     1.9    0.00     0.0     0.0    0.00     0.0     0.0    0.00
 2017 282    42       0   24593  202725       0  202725  202723     2.0    0.00     0.0     0.0    0.00     0.0     0.0    0.00
 2017 283    43       0   24592  202718       0  202718  202715     2.1    0.00     0.0     0.0    0.00     0.0     0.0    0.00
 2017 284    44       0   24591  202710       0  202710  202707     2.3    0.00     0.0     0.0    0.00     0.0     0.0    0.00
 2017 285    45       0   24590  202702       0  202702  202699     2.5    0.00     0.0     0.0    0.00     0.0     0.0    0.00
 2017 286    46       0   24589  202694       0  202694  202692     2.6    0.00     0.0     0.0    0.00     0.0     0.0    0.00
 2017 287    47       0   24589  202686       0  202686  202684     2.8    0.00     0.0     0.0    0.00     0.0     0.0    0.00
 2017 288    48       0   24588  202679       0  202679  202676     3.0    0.00     0.0     0.0    0.00     0.0     0.0    0.00
 2017 289    49       0   24587  202671       0  202671  202668     3.2    0.00     0.0     0.0    0.00     0.0     0.0    0.00
 2017 290    50       0   24586  202663       0  202663  202659     3.4    0.00     0.0     0.0    0.00     0.0     0.0    0.00
 2017 291    51       0   24585  202655       0  202655  202651     3.7    0.00     0.0     0.0    0.00     0.0     0.0    0.00
 2017 292    52       0   24584  202647       0  202647  202643     3.9    0.00     0.0     0.0    0.00     0.0     0.0    0.00
 2017 293    53       0   24583  202639       0  202639  202635     4.1    0.00     0.0     0.0    0.00     0.0     0.0    0.00
 2017 294    54       0   24583  202631       0  202631  202627     4.4    0.00     0.0     0.0    0.00     0.0     0.0    0.00
 2017 295    55       0   24582  202623       0  202623  202619     4.6    0.00     0.0     0.0    0.00     0.0     0.0    0.00
 2017 296    56       0   24581  202616       0  202616  202611     4.9    0.00     0.0     0.0    0.00     0.0     0.0    0.00
 2017 297    57       0   24580  202608       0  202608  202603     5.2    0.00     0.0     0.0    0.00     0.0     0.0    0.00
 2017 298    58       0   24579  202600       0  202600  202594     5.5    0.00     0.0     0.0    0.00     0.0     0.0    0.00
 2017 299    59       0   24578  202592       0  202592  202586     5.8    0.00     0.0     0.0    0.00     0.0     0.0    0.00
 2017 300    60       0   24577  202584       0  202584  202578     6.1    0.00     0.0     0.0    0.00     0.0     0.0    0.00
 2017 301    61       0   24576  202576       0  202576  202570     6.4    0.00     0.0     0.0    0.00     0.0     0.0    0.00
 2017 302    62       0   24576  202568       0  202568  202561     6.8    0.00     0.0     0.0    0.00     0.0     0.0    0.00
 2017 303    63       0   24575  202561       0  202561  202553     7.1    0.00     0.0     0.0    0.00     0.0     0.0    0.00
 2017 304    64       0   24574  202553       0  202553  202545     7.5    0.00     0.0     0.0    0.00     0.0     0.0    0.00
 2017 305    65       0   24573  202545       0  202545  202538     7.9    0.00     0.0     0.0    0.00     0.0     0.0    0.00
 2017 306    66       0   24572  202538       0  202538  202530     8.3    0.00     0.0     0.0    0.00     0.0     0.0    0.00
 2017 307    67       0   24571  202530       0  202530  202522     8.7    0.00     0.0     0.0    0.00     0.0     0.0    0.00
 2017 308    68       0   24571  202523       0  202523  202514     9.1    0.00     0.0     0.0    0.00     0.0     0.0    0.00
 2017 309    69       0   24570  202516       0  202516  202506     9.5    0.00     0.0     0.0    0.00     0.0     0.0    0.00
 2017 310    70       0   24569  202509       0  202509  202499     9.9    0.00     0.0     0.0    0.00     0.0     0.0    0.00
 2017 311    71       0   24568  202502       0  202502  202491    10.4    0.00     0.0     0.0    0.00     0.0     0.0    0.00
 2017 312    72       0   24567  202495       0  202495  202484    10.8    0.00     0.0     0.0    0.00     0.0     0.0    0.00
 2017 313    73       0   24566  202488       0  202488  202476    11.3    0.00     0.0     0.0    0.00     0.0     0.0    0.00
 2017 314    74       0   24566  202481       0  202481  202469    11.9    0.00     0.0     0.0    0.00     0.0     0.0    0.00
 2017 315    75       0   24565  202474       0  202474  202462    12.4    0.00     0.0     0.0    0.00     0.0     0.0    0.00
 2017 316    76       0   24564  202467       0  202467  202454    13.0    0.00     0.0     0.0    0.00     0.0     0.0    0.00
 2017 317    77       0   24564  202461       0  202461  202447    13.6    0.00     0.0     0.0    0.00     0.0     0.0    0.00
 2017 318    78       0   24563  202454       0  202454  202440    14.2    0.00     0.0     0.0    0.00     0.0     0.0    0.00
 2017 319    79       0   24562  202448       0  202448  202433    14.8    0.00     0.0     0.0    0.00     0.0     0.0    0.00
 2017 320    80       0   24562  202441       0  202441  202426    15.5    0.00     0.0     0.0    0.00     0.0     0.0    0.00
 2017 321    81       0   24561  202435       0  202435  202419    16.1    0.00     0.0     0.0    0.00     0.0     0.0    0.00
 2017 322    82       0   24560  202429       0  202429  202412    16.8    0.00     0.0     0.0    0.00     0.0     0.0    0.00
 2017 323    83       0   24560  202423       0  202423  202405    17.4    0.00     0.0     0.0    0.00     0.0     0.0    0.00
 2017 324    84       0   24559  202417       0  202417  202399    18.1    0.00     0.0     0.0    0.00     0.0     0.0    0.00
 2017 325    85       0   24558  202411       0  202411  202392    18.7    0.00     0.0     0.0    0.00     0.0     0.0    0.00
 2017 326    86       0   24558  202405       0  202405  202385    19.4    0.00     0.0     0.0    0.00     0.0     0.0    0.00
 2017 327    87       0   24557  202399       0  202399  202379    20.1    0.00     0.0     0.0    0.00     0.0     0.0    0.00
 2017 328    88       0   24557  202393       0  202393  202372    20.7    0.00     0.0     0.0    0.00     0.0     0.0    0.00
 2017 329    89       0   24556  202387       0  202387  202366    21.5    0.00     0.0     0.0    0.00     0.0     0.0    0.00
 2017 330    90       0   24555  202382       0  202382  202359    22.2    0.00     0.0     0.0    0.00     0.0     0.0    0.00
 2017 331    91       0   24555  202376       0  202376  202353    23.0    0.00     0.0     0.0    0.00     0.0     0.0    0.00
 2017 332    92       0   24554  202370       0  202370  202347    23.8    0.00     0.0     0.0    0.00     0.0     0.0    0.00
 2017 333    93       0   24553  202365       0  202365  202340    24.6    0.00     0.0     0.0    0.00     0.0     0.0    0.00
 2017 334    94       0   24553  202359       0  202359  202334    25.4    0.00     0.0     0.0    0.00     0.0     0.0    0.00
 2017 335    95       0   24552  202354       0  202354  202328    26.3    0.00     0.0     0.0    0.00     0.0     0.0    0.00
 2017 336    96       0   24552  202349       0  202349  202322    27.2    0.00     0.0     0.0    0.00     0.0     0.0    0.00
 2017 337    97       0   24551  202344       0  202344  202316    28.0    0.00     0.0     0.0    0.00     0.0     0.0    0.00
 2017 338    98       0   24551  202339       0  202339  202310    28.9    0.00     0.0     0.0    0.00     0.0     0.0    0.00
 2017 339    99       0   24550  202334       0  202334  202304    29.9    0.00     0.0     0.0    0.00     0.0     0.0    0.00
 2017 340   100       0   24550  202329       0  202329  202298    30.8    0.00     0.0     0.0    0.00     0.0     0.0    0.00
 2017 341   101       0   24550  202324       0  202324  202292    31.7    0.00     0.0     0.0    0.00     0.0     0.0    0.00
 2017 342   102       0   24549  202319       0  202319  202286    32.7    0.00     0.0     0.0    0.00     0.0     0.0    0.00
 2017 343   103       0   24549  202313       0  202313  202280    33.6    0.00     0.0     0.0    0.00     0.0     0.0    0.00
 2017 344   104       0   24548  202308       0  202308  202274    34.6    0.00     0.0     0.0    0.00     0.0     0.0    0.00
 2017 345   105       0   24547  202303       0  202303  202268    35.5    0.00     0.0     0.0    0.00     0.0     0.0    0.00
 2017 346   106       0   24547  202298       0  202298  202262    36.3    0.00     0.0     0.0    0.00     0.0     0.0    0.00
 2017 347   107       0   24546  202293       0  202293  202256    37.2    0.00     0.0     0.0    0.00     0.0     0.0    0.00
 2017 348   108       0   24546  202289       0  202289  202250    38.1    0.00     0.0     0.0    0.00     0.0     0.0    0.00
 2017 349   109       0   24545  202284       0  202284  202245    39.0    0.00     0.0     0.0    0.00     0.0     0.0    0.00
 2017 350   110       0   24545  202279       0  202279  202239    39.9    0.00     0.0     0.0    0.00     0.0     0.0    0.00
 2017 351   111       0   24545  202274       0  202274  202234    40.9    0.00     0.0     0.0    0.00     0.0     0.0    0.00
 2017 352   112       0   24544  202269       0  202269  202228    41.9    0.00     0.0     0.0    0.00     0.0     0.0    0.00
 2017 353   113       0   24543  202264       0  202264  202221    42.9    0.00     0.0     0.0    0.00     0.0     0.0    0.00
 2017 354   114       0   24542  202258       0  202258  202214    43.9    0.00     0.0     0.0    0.00     0.0     0.0    0.00
 2017 355   115       0   24542  202252       0  202252  202207    44.9    0.00     0.0     0.0    0.00     0.0     0.0    0.00
 2017 356   116       0   24541  202246       0  202246  202200    45.9    0.00     0.0     0.0    0.00     0.0     0.0    0.00
 2017 357   117       0   24540  202240       0  202240  202193    46.9    0.00     0.0     0.0    0.00     0.0     0.0    0.00
 2017 358   118       0   24539  202234       0  202234  202186    47.9    0.00     0.0     0.0    0.00     0.0     0.0    0.00
 2017 359   119       0   24538  202227       0  202227  202178    48.9    0.00     0.0     0.0    0.00     0.0     0.0    0.00
 2017 360   120       0   24537  202221       0  202221  202171    49.9    0.00     0.0     0.0    0.00     0.0     0.0    0.00
 2017 361   121       0   24536  202215       0  202215  202164    50.9    0.00     0.0     0.0    0.00     0.0     0.0    0.00
 2017 362   122       0   24536  202210       0  202210  202158    51.9    0.00     0.0     0.0    0.00     0.0     0.0    0.00
 2017 363   123       0   24535  202204       0  202204  202151    53.0    0.00     0.0     0.0    0.00     0.0     0.0    0.00
 2017 364   124       0   24534  202199       0  202199  202145    54.0    0.00     0.0     0.0    0.00     0.0     0.0    0.00
 2017 365   125       0   24534  202194       0  202194  202139    55.1    0.00     0.0     0.0    0.00     0.0     0.0    0.00
 2018 001   126       0   24533  202189       0  202189  202133    56.1    0.00     0.0     0.0    0.00     0.0     0.0    0.00
 2018 002   127       0   24533  202184       0  202184  202127    57.2    0.00     0.0     0.0    0.00     0.0     0.0    0.00
 2018 003   128       0   24532  202179       0  202179  202121    58.2    0.00     0.0     0.0    0.00     0.0     0.0    0.00
 2018 004   129       0   24532  202175       0  202175  202116    59.3    0.00     0.0     0.0    0.00     0.0     0.0    0.00
 2018 005   130       0   24531  202170       0  202170  202110    60.3    0.00     0.0     0.0    0.00     0.0     0.0    0.00
 2018 006   131       0   24531  202166       0  202166  202105    61.3    0.00     0.0     0.0    0.00     0.0     0.0    0.00
 2018 007   132       0   24531  202162       0  202162  202099    62.3    0.00     0.0     0.0    0.00     0.0     0.0    0.00
 2018 008   133       0   24530  202157       0  202157  202094    63.3    0.00     0.0     0.0    0.00     0.0     0.0    0.00
 2018 009   134       0   24530  202153       0  202153  202089    64.3    0.00     0.0     0.0    0.00     0.0     0.0    0.00
 2018 010   135       0   24529  202149       0  202149  202083    65.4    0.00     0.0     0.0    0.00     0.0     0.0    0.00
 2018 011   136       0   24529  202145       0  202145  202078    66.5    0.00     0.0     0.0    0.00     0.0     0.0    0.00
 2018 012   137       0   24529  202140       0  202140  202073    67.7    0.00     0.0     0.0    0.00     0.0     0.0    0.00
 2018 013   138       0   24528  202136       0  202136  202067    68.8    0.00     0.0     0.0    0.00     0.0     0.0    0.00
 2018 014   139       0   24528  202132       0  202132  202062    70.0    0.00     0.0     0.0    0.00     0.0     0.0    0.00
 2018 015   140       0   24528  202128       0  202128  202057    71.2    0.00     0.0     0.0    0.00     0.0     0.0    0.00
 2018 016   141       0   24527  202124       0  202124  202051    72.3    0.00     0.0     0.0    0.00     0.0     0.0    0.00
 2018 017   142       0   24527  202120       0  202120  202046    73.5    0.00     0.0     0.0    0.00     0.0     0.0    0.00
 2018 018   143       0   24527  202116       0  202116  202041    74.6    0.00     0.0     0.0    0.00     0.0     0.0    0.00
 2018 019   144       0   24526  202112       0  202112  202036    75.8    0.00     0.0     0.0    0.00     0.0     0.0    0.00
 2018 020   145       0   24526  202108       0  202108  202031    77.0    0.00     0.0     0.0    0.00     0.0     0.0    0.00
 2018 021   146       0   24526  202104       0  202104  202026    78.3    0.00     0.0     0.0    0.00     0.0     0.0    0.00
 2018 022   147       0   24525  202100       0  202100  202020    79.5    0.00     0.0     0.0    0.00     0.0     0.0    0.00
 2018 023   148       0   24525  202096       0  202096  202015    80.7    0.00     0.0     0.0    0.00     0.0     0.0    0.00
 2018 024   149       0   24525  202092       0  202092  202010    82.0    0.00     0.0     0.0    0.00     0.0     0.0    0.00
 2018 025   150       0   24524  202088       0  202088  202005    83.2    0.00     0.0     0.0    0.00     0.0     0.0    0.00
 2018 026   151       0   24524  202084       0  202084  202000    84.4    0.00     0.0     0.0    0.00     0.0     0.0    0.00
 2018 027   152       0   24524  202081       1  202081  201995    85.5    0.00     0.0     0.0    0.00     0.0     0.0    0.00
 2018 028   153       0   24523  202079       2  202077  201990    86.7    0.00     0.0     0.0    0.00     0.0     0.0    0.00
 2018 029   154       0   24523  202077       3  202073  201986    87.9    0.00     0.0     0.0    0.00     0.0     0.0    0.00
 2018 030   155       0   24523  202076       6  202070  201981    89.0    0.00     0.0     0.0    0.00     0.0     0.0    0.00
 2018 031   156       0   24523  202075       9  202066  201976    90.3    0.00     0.0     0.0    0.00     0.0     0.0    0.00
 2018 032   157       0   24522  202075      12  202063  201971    91.5    0.00     0.0     0.0    0.00     0.0     0.0    0.00
 2018 033   158       0   24522  202074      15  202059  201966    92.8    0.00     0.0     0.0    0.00     0.0     0.0    0.00
 2018 034   159       0   24522  202073      17  202055  201961    94.1    0.00     0.0     0.0    0.00     0.0     0.0    0.00
 2018 035   160       0   24522  202072      20  202052  201957    95.4    0.00     0.0     0.0    0.00     0.0     0.0    0.00
 2018 036   161       0   24521  202071      23  202048  201952    96.7    0.00     0.0     0.0    0.00     0.0     0.0    0.00
 2018 037   162       0   24521  202069      25  202045  201947    98.1    0.00     0.0     0.0    0.00     0.0     0.0    0.00
 2018 038   163       0   24521  202068      27  202041  201942    99.4    0.00     0.0     0.0    0.00     0.0     0.0    0.00
 2018 039   164       0   24520  202066      29  202037  201936   100.8    0.00     0.0     0.0    0.00     0.0     0.0    0.00
 2018 040   165       0   24520  202063      30  202033  201931   102.1    0.00     0.0     0.0    0.00     0.0     0.0    0.00
 2018 041   166       0   24519  202060      32  202028  201925   103.5    0.00     0.0     0.0    0.00     0.0     0.0    0.00
 2018 042   167       0   24518  202057      34  202023  201918   104.7    0.00     0.0     0.0    0.00     0.0     0.0    0.00
 2018 043   168       0   24517  202054      36  202018  201912   106.0    0.00     0.0     0.0    0.00     0.0     0.0    0.00
 2018 044   169       0   24516  202051      38  202013  201906   107.3    0.00     0.0     0.0    0.00     0.0     0.0    0.00
 2018 045   170       0   24515  202049      40  202008  201900   108.5    0.00     0.0     0.0    0.00     0.0     0.0    0.00
 2018 046   171       0   24515  202047      43  202004  201894   109.8    0.00     0.0     0.0    0.00     0.0     0.0    0.00
 2018 047   172       0   24514  202045      46  201999  201888   111.1    0.00     0.0     0.0    0.00     0.0     0.0    0.00
 2018 048   173       0   24513  202044      49  201995  201883   112.4    0.00     0.0     0.0    0.00     0.0     0.0    0.00
 2018 049   174       0   24513  202042      51  201991  201877   113.8    0.00     0.0     0.0    0.00     0.0     0.0    0.00
 2018 050   175       0   24512  202040      54  201986  201871   115.2    0.00     0.0     0.0    0.00     0.0     0.0    0.00
 2018 051   176       0   24511  202039      57  201982  201865   116.5    0.00     0.0     0.0    0.00     0.0     0.0    0.00
 2018 052   177       0   24511  202037      60  201977  201859   117.9    0.00     0.0     0.0    0.00     0.0     0.0    0.00
 2018 053   178       0   24510  202036      63  201973  201854   119.2    0.00     0.0     0.0    0.00     0.0     0.0    0.00
 2018 054   179       0   24509  202035      66  201969  201849   120.4    0.00     0.0     0.0    0.00     0.0     0.0    0.00
 2018 055   180       0   24509  202034      70  201965  201843   121.6    0.00     0.0     0.0    0.00     0.0     0.0    0.00
 2018 056   181       0   24508  202034      73  201961  201838   122.8    0.00     0.0     0.0    0.00     0.0     0.0    0.00
 2018 057   182       0   24507  202033      76  201957  201833   124.0    0.00     0.0     0.0    0.00     0.0     0.0    0.00
 2018 058   183       0   24507  202032      80  201953  201828   125.2    0.00     0.0     0.0    0.00     0.0     0.0    0.00
 2018 059   184       0   24506  202032      83  201949  201823   126.4    0.00     0.0     0.0    0.00     0.0     0.0    0.00
 2018 060   185       0   24505  202032      87  201945  201817   127.6    0.00     0.0     0.0    0.00     0.0     0.0    0.00
 2018 061   186       0   24505  202033      91  201941  201812   128.9    0.00     0.0     0.0    0.00     0.0     0.0    0.00
 2018 062   187       0   24504  202033      96  201937  201807   130.1    0.00     0.0     0.0    0.00     0.0     0.0    0.00
 2018 063   188       0   24504  202035     101  201934  201802   131.4    0.00     0.0     0.0    0.00     0.0     0.0    0.00
 2018 064   189       0   24503  202036     106  201930  201797   132.7    0.00     0.0     0.0    0.00     0.0     0.0    0.00
 2018 065   190       0   24503  202037     111  201926  201792   134.1    0.00     0.0     0.0    0.00     0.0     0.0    0.00
 2018 066   191       0   24502  202038     116  201922  201786   135.6    0.00     0.0     0.0    0.00     0.0     0.0    0.00
 2018 067   192       0   24501  202039     121  201918  201781   137.0    0.00     0.0     0.0    0.00     0.0     0.0    0.00
 2018 068   193       0   24501  202041     127  201914  201776   138.4    0.00     0.0     0.0    0.00     0.0     0.0    0.00
 2018 069   194       0   24500  202042     132  201911  201771   139.7    0.00     0.0     0.0    0.00     0.0     0.0    0.00
 2018 070   195       0   24500  202044     137  201907  201766   141.1    0.00     0.0     0.0    0.00     0.0     0.0    0.00
 2018 071   196       0   24499  202047     143  201903  201761   142.4    0.00     0.0     0.0    0.00     0.0     0.0    0.00
 2018 072   197       0   24499  202048     149  201900  201756   143.7    0.00     0.0     0.0    0.00     0.0     0.0    0.00
 2018 073   198       0   24498  202050     154  201896  201751   145.0    0.00     0.0     0.0    0.00     0.0     0.0    0.00
 2018 074   199       0   24497  202051     159  201892  201746   146.3    0.00     0.0     0.0    0.00     0.0     0.0    0.00
 2018 075   200       0   24496  202052     163  201888  201740   147.7    0.00     0.0     0.0    0.00     0.0     0.0    0.00
 2018 076   201       0   24496  202052     168  201884  201735   149.0    0.00     0.0     0.0    0.00     0.0     0.0    0.00
 2018 077   202       0   24495  202053     173  201880  201730   150.4    0.00     0.0     0.0    0.00     0.0     0.0    0.00
 2018 078   203       0   24494  202054     177  201877  201725   151.7    0.00     0.0     0.0    0.00     0.0     0.0    0.00
 2018 079   204       0   24493  202055     181  201873  201720   152.9    0.00     0.0     0.0    0.00     0.0     0.0    0.00
 2018 080   205       0   24493  202055     186  201870  201716   154.2    0.00     0.0     0.0    0.00     0.0     0.0    0.00
 2018 081   206       0   24492  202056     189  201867  201711   155.4    0.00     0.0     0.0    0.00     0.0     0.0    0.00
 2018 082   207       0   24492  202057     193  201863  201707   156.7    0.00     0.0     0.0    0.00     0.0     0.0    0.00
 2018 083   208       0   24491  202058     198  201860  201702   157.9    0.00     0.0     0.0    0.00     0.0     0.0    0.00
 2018 084   209       0   24491  202058     201  201857  201698   159.2    0.00     0.0     0.0    0.00     0.0     0.0    0.00
 2018 085   210       0   24490  202059     205  201854  201693   160.5    0.00     0.0     0.0    0.00     0.0     0.0    0.00
 2018 086   211       0   24489  202060     209  201851  201689   161.8    0.00     0.0     0.0    0.00     0.0     0.0    0.00
 2018 087   212       0   24489  202061     213  201848  201685   163.1    0.00     0.0     0.0    0.00     0.0     0.0    0.00
 2018 088   213       0   24489  202061     217  201845  201680   164.4    0.00     0.0     0.0    0.00     0.0     0.0    0.00
 2018 089   214       0   24488  202062     220  201842  201676   165.7    0.00     0.0     0.0    0.00     0.0     0.0    0.00
 2018 090   215       0   24488  202062     223  201839  201672   167.0    0.00     0.0     0.0    0.00     0.0     0.0    0.00
 2018 091   216       0   24487  202061     225  201836  201668   168.3    0.00     0.0     0.0    0.00     0.0     0.0    0.00
 2018 092   217       0   24487  202061     227  201833  201664   169.6    0.00     0.0     0.0    0.00     0.0     0.0    0.00
 2018 093   218       0   24487  202060     229  201831  201660   170.8    0.00     0.0     0.0    0.00     0.0     0.0    0.00
 2018 094   219       0   24486  202059     231  201828  201656   172.0    0.00     0.0     0.0    0.00     0.0     0.0    0.00
 2018 095   220       0   24486  202059     233  201826  201652   173.3    0.00     0.0     0.0    0.00     0.0     0.0    0.00
 2018 096   221       0   24485  202057     235  201823  201648   174.6    0.00     0.0     0.0    0.00     0.0     0.0    0.00
 2018 097   222       0   24485  202056     236  201820  201644   175.8    0.00     0.0     0.0    0.00     0.0     0.0    0.00
 2018 098   223       0   24484  202055     238  201817  201640   177.1    0.00     0.0     0.0    0.00     0.0     0.0    0.00
 2018 099   224       0   24484  202053     239  201814  201636   178.3    0.00     0.0     0.0    0.00     0.0     0.0    0.00
 2018 100   225       0   24483  202052     241  201811  201631   179.5    0.00     0.0     0.0    0.00     0.0     0.0    0.00
 2018 101   226       0   24482  202050     242  201808  201627   180.8    0.00     0.0     0.0    0.00     0.0     0.0    0.00
 2018 102   227       0   24482  202048     244  201805  201623   182.0    0.00     0.0     0.0    0.00     0.0     0.0    0.00
 2018 103   228       0   24481  202047     245  201802  201619   183.3    0.00     0.0     0.0    0.00     0.0     0.0    0.00
 2018 104   229       0   24480  202046     247  201799  201615   184.6    0.00     0.0     0.0    0.00     0.0     0.0    0.00
 2018 105   230       0   24480  202045     248  201796  201610   185.9    0.00     0.0     0.0    0.00     0.0     0.0    0.00
 2018 106   231       0   24479  202043     249  201794  201606   187.2    0.00     0.0     0.0    0.00     0.0     0.0    0.00
 2018 107   232       0   24478  202042     251  201791  201602   188.4    0.00     0.0     0.0    0.00     0.0     0.0    0.00
 2018 108   233       0   24478  202041     253  201788  201598   189.7    0.00     0.0     0.0    0.00     0.0     0.0    0.00
 2018 109   234       0   24477  202040     256  201785  201594   191.0    0.00     0.0     0.0    0.00     0.0     0.0    0.00
 2018 110   235       0   24476  202041     260  201782  201589   192.2    0.00     0.0     0.0    0.00     0.0     0.0    0.00
 2018 111   236       0   24475  202042     264  201778  201585   193.4    0.00     0.0     0.0    0.00     0.0     0.0    0.00
 2018 112   237       0   24474  202043     268  201775  201580   194.7    0.00     0.0     0.0    0.00     0.0     0.0    0.00
 2018 113   238       0   24473  202044     272  201772  201576   195.9    0.00     0.0     0.0    0.00     0.0     0.0    0.00
 2018 114   239       0   24472  202045     276  201769  201572   197.1    0.00     0.0     0.0    0.00     0.0     0.0    0.00
 2018 115   240       0   24472  202044     279  201765  201567   198.3    0.00     0.0     0.0    0.00     0.0     0.0    0.00
 2018 116   241       0   24471  202044     281  201762  201563   199.5    0.00     0.0     0.0    0.00     0.0     0.0    0.00
 2018 117   242       0   24470  202042     283  201759  201559   200.7    0.00     0.0     0.0    0.00     0.0     0.0    0.00
 2018 118   243       0   24469  202041     285  201756  201554   201.9    0.00     0.0     0.0    0.00     0.0     0.0    0.00
 2018 119   244       0   24468  202040     286  201753  201550   203.1    0.00     0.0     0.0    0.00     0.0     0.0    0.00
 2018 120   245       0   24468  202038     288  201751  201546   204.3    0.00     0.0     0.0    0.00     0.0     0.0    0.00
 2018 121   246       0   24467  202037     289  201748  201542   205.5    0.00     0.0     0.0    0.00     0.0     0.0    0.00
 2018 122   247       0   24467  202035     290  201745  201538   206.8    0.00     0.0     0.0    0.00     0.0     0.0    0.00
 2018 123   248       0   24466  202033     291  201742  201534   208.0    0.00     0.0     0.0    0.00     0.0     0.0    0.00
 2018 124   249       0   24465  202031     292  201738  201529   209.3    0.00     0.0     0.0    0.00     0.0     0.0    0.00
 2018 125   250       0   24464  202028     293  201735  201525   210.5    0.00     0.0     0.0    0.00     0.0     0.0    0.00
 2018 126   251       0   24463  202026     294  201732  201520   211.7    0.00     0.0     0.0    0.00     0.0     0.0    0.00
 2018 127   252       0   24462  202024     295  201729  201516   212.9    0.00     0.0     0.0    0.00     0.0     0.0    0.00
 2018 128   253       0   24461  202021     296  201726  201512   214.1    0.00     0.0     0.0    0.00     0.0     0.0    0.00
 2018 129   254       0   24460  202019     297  201723  201507   215.3    0.00     0.0     0.0    0.00     0.0     0.0    0.00
 2018 130   255       0   24460  202017     297  201720  201503   216.5    0.00     0.0     0.0    0.00     0.0     0.0    0.00
 2018 131   256       0   24459  202014     298  201716  201499   217.7    0.00     0.0     0.0    0.00     0.0     0.0    0.00
 2018 132   257       0   24458  202011     298  201713  201494   218.8    0.00     0.0     0.0    0.00     0.0     0.0    0.00
 2018 133   258       0   24457  202008     299  201709  201489   220.0    0.00     0.0     0.0    0.00     0.0     0.0    0.00
 2018 134   259       0   24456  202005     299  201706  201484   221.1    0.00     0.0     0.0    0.00     0.0     0.0    0.00
 2018 135   260       0   24455  202002     300  201702  201480   222.2    0.00     0.0     0.0    0.00     0.0     0.0    0.00
 2018 136   261       0   24455  201998     300  201698  201475   223.3    0.00     0.0     0.0    0.00     0.0     0.0    0.00
 2018 137   262       0   24454  201995     301  201694  201470   224.4    0.00     0.0     0.0    0.00     0.0     0.0    0.00
 2018 138   263       0   24453  201991     301  201690  201464   225.6    0.00     0.0     0.0    0.00     0.0     0.0    0.00
 2018 139   264       0   24452  201988     302  201686  201459   226.7    0.00     0.0     0.0    0.00     0.0     0.0    0.00
 2018 140   265       0   24451  201984     302  201682  201454   227.9    0.00     0.0     0.0    0.00     0.0     0.0    0.00
 2018 141   266       0   24450  201980     303  201678  201448   229.1    0.00     0.0     0.0    0.00     0.0     0.0    0.00
 2018 142   267       0   24449  201976     303  201673  201443   230.2    0.00     0.0     0.0    0.00     0.0     0.0    0.00
 2018 143   268       0   24449  201973     303  201669  201438   231.4    0.00     0.0     0.0    0.00     0.0     0.0    0.00
 2018 144   269       0   24448  201969     304  201665  201432   232.6    0.00     0.0     0.0    0.00     0.0     0.0    0.00
 2018 145   270       0   24447  201965     304  201660  201427   233.8    0.00     0.0     0.0    0.00     0.0     0.0    0.00
 2018 146   271       0   24446  201961     305  201656  201421   234.9    0.00     0.0     0.0    0.00     0.0     0.0    0.00
 2018 147   272       0   24445  201957     305  201651  201415   236.1    0.00     0.0     0.0    0.00     0.0     0.0    0.00
 2018 148   273       0   24444  201952     305  201647  201409   237.2    0.00     0.0     0.0    0.00     0.0     0.0    0.00
 2018 149   274       0   24444  201948     306  201642  201404   238.4    0.00     0.0     0.0    0.00     0.0     0.0    0.00
 2018 150   275       0   24443  201944     306  201637  201398   239.5    0.00     0.0     0.0    0.00     0.0     0.0    0.00
 2018 151   276       0   24442  201939     307  201633  201392   240.7    0.00     0.0     0.0    0.00     0.0     0.0    0.00
 2018 152   277       0   24441  201935     307  201628  201386   241.8    0.00     0.0     0.0    0.00     0.0     0.0    0.00
 2018 153   278       0   24440  201931     307  201623  201380   243.0    0.00     0.0     0.0    0.00     0.0     0.0    0.00
 2018 154   279       0   24439  201926     307  201619  201375   244.2    0.00     0.0     0.0    0.00     0.0     0.0    0.00
 2018 155   280       0   24439  201922     308  201614  201369   245.4    0.00     0.0     0.0    0.00     0.0     0.0    0.00
 2018 156   281       0   24438  201918     308  201609  201363   246.5    0.00     0.0     0.0    0.00     0.0     0.0    0.00
 2018 157   282       0   24437  201913     309  201605  201357   247.7    0.00     0.0     0.0    0.00     0.0     0.0    0.00
 2018 158   283       0   24436  201910     309  201600  201351   248.9    0.00     0.0     0.0    0.00     0.0     0.0    0.00
 2018 159   284       0   24435  201906     310  201596  201346   250.0    0.00     0.0     0.0    0.00     0.0     0.0    0.00
 2018 160   285       0   24434  201901     311  201590  201339   251.2    0.00     0.0     0.0    0.00     0.0     0.0    0.00
 2018 161   286       0   24433  201897     312  201585  201333   252.4    0.00     0.0     0.0    0.00     0.0     0.0    0.00
 2018 162   287       0   24433  201892     313  201579  201326   253.5    0.00     0.0     0.0    0.00     0.0     0.0    0.00
 2018 163   288       0   24432  201887     314  201573  201319   254.6    0.00     0.0     0.0    0.00     0.0     0.0    0.00
 2018 164   289       0   24431  201883     315  201567  201311   255.8    0.00     0.0     0.0    0.00     0.0     0.0    0.00
 2018 165   290       0   24430  201878     317  201561  201304   256.9    0.00     0.0     0.0    0.00     0.0     0.0    0.00
 2018 166   291       0   24429  201873     318  201555  201297   258.1    0.00     0.0     0.0    0.00     0.0     0.0    0.00
 2018 167   292       0   24428  201868     320  201548  201289   259.3    0.00     0.0     0.0    0.00     0.0     0.0    0.00
 2018 168   293       0   24428  201862     321  201542  201281   260.4    0.00     0.0     0.0    0.00     0.0     0.0    0.00
 2018 169   294       0   24427  201856     321  201535  201274   261.6    0.00     0.0     0.0    0.00     0.0     0.0    0.00
 2018 170   295       0   24426  201851     322  201529  201266   262.7    0.00     0.0     0.0    0.00     0.0     0.0    0.00
 2018 171   296       0   24425  201845     323  201522  201258   263.8    0.00     0.0     0.0    0.00     0.0     0.0    0.00
 2018 172   297       0   24424  201839     323  201516  201251   264.8    0.00     0.0     0.0    0.00     0.0     0.0    0.00
 2018 173   298       0   24424  201833     324  201510  201244   265.9    0.00     0.0     0.0    0.00     0.0     0.0    0.00
 2018 174   299       0   24423  201828     324  201504  201237   266.9    0.00     0.0     0.0    0.00     0.0     0.0    0.00
 2018 175   300       0   24422  201822     325  201497  201229   267.9    0.00     0.0     0.0    0.00     0.0     0.0    0.00
 2018 176   301       0   24421  201816     325  201491  201222   268.9    0.00     0.0     0.0    0.00     0.0     0.0    0.00
 2018 177   302       0   24421  201810     326  201485  201215   269.9    0.00     0.0     0.0    0.00     0.0     0.0    0.00
 2018 178   303       0   24420  201804     326  201478  201207   271.0    0.00     0.0     0.0    0.00     0.0     0.0    0.00
 2018 179   304       0   24419  201799     327  201472  201200   272.1    0.00     0.0     0.0    0.00     0.0     0.0    0.00
 2018 180   305       0   24418  201793     327  201465  201192   273.2    0.00     0.0     0.0    0.00     0.0     0.0    0.00
 2018 181   306       0   24417  201786     328  201459  201184   274.3    0.00     0.0     0.0    0.00     0.0     0.0    0.00
 2018 182   307       0   24416  201780     328  201452  201177   275.4    0.00     0.0     0.0    0.00     0.0     0.0    0.00
 2018 183   308       0   24416  201774     328  201446  201169   276.5    0.00     0.0     0.0    0.00     0.0     0.0    0.00
 2018 184   309       0   24415  201768     329  201439  201162   277.5    0.00     0.0     0.0    0.00     0.0     0.0    0.00
 2018 185   310       0   24414  201762     329  201433  201154   278.6    0.00     0.0     0.0    0.00     0.0     0.0    0.00
 2018 186   311       0   24413  201756     330  201427  201147   279.6    0.00     0.0     0.0    0.00     0.0     0.0    0.00
 2018 187   312       0   24413  201750     330  201420  201140   280.7    0.00     0.0     0.0    0.00     0.0     0.0    0.00
 2018 188   313       0   24412  201744     330  201414  201132   281.7    0.00     0.0     0.0    0.00     0.0     0.0    0.00
 2018 189   314       0   24411  201738     331  201408  201125   282.7    0.00     0.0     0.0    0.00     0.0     0.0    0.00
 2018 190   315       0   24410  201732     331  201401  201117   283.8    0.00     0.0     0.0    0.00     0.0     0.0    0.00
 2018 191   316       0   24409  201726     331  201395  201110   284.9    0.00     0.0     0.0    0.00     0.0     0.0    0.00
 2018 192   317       0   24409  201720     332  201388  201102   285.9    0.00     0.0     0.0    0.00     0.0     0.0    0.00
 2018 193   318       0   24408  201714     332  201382  201095   287.1    0.00     0.0     0.0    0.00     0.0     0.0    0.00
 2018 194   319       0   24407  201707     332  201375  201087   288.2    0.00     0.0     0.0    0.00     0.0     0.0    0.00

*DSSAT Cropping System Model Ver. 4.8.0.019 -develop  APR 08, 2023 12:34:39

*RUN   8        : IITA-TMS-IBA000070        CSYCA048 UYIB2001    1
 MODEL          : CSYCA048 - Cassava
 EXPERIMENT     : UYIB2001 CS UYT_GXE
 DATA PATH      :
 TREATMENT  1   : IITA-TMS-IBA000070        CSYCA048
  
@YEAR DOY   DAS    OMAC    SCDD    SOCD    SC0D    SCTD   SOMCT    LCTD    ONAC    SNDD    SOND    SN0D    SNTD   SOMNT    LNTD
 2020 134     0       0   12762  109486       0  109486  109486     0.0    0.00     0.0     0.0    0.00     0.0     0.0    0.00
 2020 135     1       0   12761  109480       0  109480  109480     0.0    0.00     0.0     0.0    0.00     0.0     0.0    0.00
 2020 136     2       0   12760  109474       0  109474  109474     0.0    0.00     0.0     0.0    0.00     0.0     0.0    0.00
 2020 137     3       0   12760  109469       0  109469  109469     0.0    0.00     0.0     0.0    0.00     0.0     0.0    0.00
 2020 138     4       0   12759  109463       0  109463  109463     0.0    0.00     0.0     0.0    0.00     0.0     0.0    0.00
 2020 139     5       0   12759  109458       0  109458  109458     0.0    0.00     0.0     0.0    0.00     0.0     0.0    0.00
 2020 140     6       0   12758  109452       0  109452  109452     0.0    0.00     0.0     0.0    0.00     0.0     0.0    0.00
 2020 141     7       0   12757  109446       0  109446  109446     0.0    0.00     0.0     0.0    0.00     0.0     0.0    0.00
 2020 142     8       0   12757  109441       0  109441  109441     0.0    0.00     0.0     0.0    0.00     0.0     0.0    0.00
 2020 143     9       0   12756  109435       0  109435  109435     0.0    0.00     0.0     0.0    0.00     0.0     0.0    0.00
 2020 144    10       0   12756  109430       0  109430  109430     0.0    0.00     0.0     0.0    0.00     0.0     0.0    0.00
 2020 145    11       0   12755  109424       0  109424  109424     0.0    0.00     0.0     0.0    0.00     0.0     0.0    0.00
 2020 146    12       0   12755  109419       0  109419  109419     0.0    0.00     0.0     0.0    0.00     0.0     0.0    0.00
 2020 147    13       0   12754  109414       0  109414  109414     0.0    0.00     0.0     0.0    0.00     0.0     0.0    0.00
 2020 148    14       0   12753  109408       0  109408  109408     0.0    0.00     0.0     0.0    0.00     0.0     0.0    0.00
 2020 149    15       0   12753  109403       0  109403  109403     0.0    0.00     0.0     0.0    0.00     0.0     0.0    0.00
 2020 150    16       0   12752  109397       0  109397  109397     0.0    0.00     0.0     0.0    0.00     0.0     0.0    0.00
 2020 151    17       0   12752  109392       0  109392  109392     0.0    0.00     0.0     0.0    0.00     0.0     0.0    0.00
 2020 152    18       0   12751  109387       0  109387  109387     0.0    0.00     0.0     0.0    0.00     0.0     0.0    0.00
 2020 153    19       0   12751  109381       0  109381  109381     0.0    0.00     0.0     0.0    0.00     0.0     0.0    0.00
 2020 154    20       0   12750  109376       0  109376  109376     0.0    0.00     0.0     0.0    0.00     0.0     0.0    0.00
 2020 155    21       0   12749  109371       0  109371  109371     0.0    0.00     0.0     0.0    0.00     0.0     0.0    0.00
 2020 156    22       0   12749  109365       0  109365  109365     0.0    0.00     0.0     0.0    0.00     0.0     0.0    0.00
 2020 157    23       0   12748  109360       0  109360  109360     0.0    0.00     0.0     0.0    0.00     0.0     0.0    0.00
 2020 158    24       0   12748  109355       0  109355  109355     0.0    0.00     0.0     0.0    0.00     0.0     0.0    0.00
 2020 159    25       0   12747  109349       0  109349  109349     0.0    0.00     0.0     0.0    0.00     0.0     0.0    0.00
 2020 160    26       0   12747  109344       0  109344  109344     0.0    0.00     0.0     0.0    0.00     0.0     0.0    0.00
 2020 161    27       0   12746  109338       0  109338  109338     0.0    0.00     0.0     0.0    0.00     0.0     0.0    0.00
 2020 162    28       0   12745  109333       0  109333  109333     0.0    0.00     0.0     0.0    0.00     0.0     0.0    0.00
 2020 163    29       0   12745  109328       0  109328  109328     0.0    0.00     0.0     0.0    0.00     0.0     0.0    0.00
 2020 164    30       0   12744  109323       0  109323  109323     0.0    0.00     0.0     0.0    0.00     0.0     0.0    0.00
 2020 165    31       0   12744  109317       0  109317  109317     0.0    0.00     0.0     0.0    0.00     0.0     0.0    0.00
 2020 166    32       0   12743  109312       0  109312  109312     0.0    0.00     0.0     0.0    0.00     0.0     0.0    0.00
 2020 167    33       0   12743  109307       0  109307  109307     0.0    0.00     0.0     0.0    0.00     0.0     0.0    0.00
 2020 168    34       0   12742  109302       0  109302  109302     0.0    0.00     0.0     0.0    0.00     0.0     0.0    0.00
 2020 169    35       0   12742  109297       0  109297  109297     0.0    0.00     0.0     0.0    0.00     0.0     0.0    0.00
 2020 170    36       0   12741  109291       0  109291  109291     0.0    0.00     0.0     0.0    0.00     0.0     0.0    0.00
 2020 171    37       0   12740  109286       0  109286  109286     0.0    0.00     0.0     0.0    0.00     0.0     0.0    0.00
 2020 172    38       0   12740  109281       0  109281  109281     0.0    0.00     0.0     0.0    0.00     0.0     0.0    0.00
 2020 173    39       0   12739  109276       0  109276  109276     0.0    0.00     0.0     0.0    0.00     0.0     0.0    0.00
 2020 174    40       0   12739  109270       0  109270  109270     0.0    0.00     0.0     0.0    0.00     0.0     0.0    0.00
 2020 175    41       0   12738  109265       0  109265  109265     0.0    0.00     0.0     0.0    0.00     0.0     0.0    0.00
 2020 176    42       0   12738  109260       0  109260  109260     0.0    0.00     0.0     0.0    0.00     0.0     0.0    0.00
 2020 177    43       0   12737  109255       0  109255  109255     0.0    0.00     0.0     0.0    0.00     0.0     0.0    0.00
 2020 178    44       0   12737  109249       0  109249  109249     0.0    0.00     0.0     0.0    0.00     0.0     0.0    0.00
 2020 179    45       0   12736  109244       0  109244  109244     0.0    0.00     0.0     0.0    0.00     0.0     0.0    0.00
 2020 180    46       0   12735  109239       0  109239  109239     0.0    0.00     0.0     0.0    0.00     0.0     0.0    0.00
 2020 181    47       0   12735  109233       0  109233  109233     0.0    0.00     0.0     0.0    0.00     0.0     0.0    0.00
 2020 182    48       0   12734  109228       0  109228  109228     0.0    0.00     0.0     0.0    0.00     0.0     0.0    0.00
 2020 183    49       0   12734  109223       0  109223  109223     0.0    0.00     0.0     0.0    0.00     0.0     0.0    0.00
 2020 184    50       0   12733  109218       0  109218  109218     0.0    0.00     0.0     0.0    0.00     0.0     0.0    0.00
 2020 185    51       0   12733  109213       0  109213  109213     0.0    0.00     0.0     0.0    0.00     0.0     0.0    0.00
 2020 186    52       0   12732  109208       0  109208  109208     0.0    0.00     0.0     0.0    0.00     0.0     0.0    0.00
 2020 187    53       0   12732  109203       0  109203  109203     0.0    0.00     0.0     0.0    0.00     0.0     0.0    0.00
 2020 188    54       0   12731  109198       0  109198  109198     0.1    0.00     0.0     0.0    0.00     0.0     0.0    0.00
 2020 189    55       0   12731  109192       0  109192  109192     0.1    0.00     0.0     0.0    0.00     0.0     0.0    0.00
 2020 190    56       0   12730  109187       0  109187  109187     0.1    0.00     0.0     0.0    0.00     0.0     0.0    0.00
 2020 191    57       0   12730  109182       0  109182  109182     0.2    0.00     0.0     0.0    0.00     0.0     0.0    0.00
 2020 192    58       0   12729  109177       0  109177  109177     0.2    0.00     0.0     0.0    0.00     0.0     0.0    0.00
 2020 193    59       0   12729  109172       0  109172  109172     0.3    0.00     0.0     0.0    0.00     0.0     0.0    0.00
 2020 194    60       0   12728  109167       0  109167  109167     0.3    0.00     0.0     0.0    0.00     0.0     0.0    0.00
 2020 195    61       0   12727  109162       0  109162  109162     0.4    0.00     0.0     0.0    0.00     0.0     0.0    0.00
 2020 196    62       0   12727  109158       0  109158  109157     0.5    0.00     0.0     0.0    0.00     0.0     0.0    0.00
 2020 197    63       0   12726  109153       0  109153  109152     0.6    0.00     0.0     0.0    0.00     0.0     0.0    0.00
 2020 198    64       0   12726  109148       0  109148  109147     0.7    0.00     0.0     0.0    0.00     0.0     0.0    0.00
 2020 199    65       0   12725  109143       0  109143  109142     0.7    0.00     0.0     0.0    0.00     0.0     0.0    0.00
 2020 200    66       0   12725  109138       0  109138  109137     0.8    0.00     0.0     0.0    0.00     0.0     0.0    0.00
 2020 201    67       0   12724  109133       0  109133  109132     0.9    0.00     0.0     0.0    0.00     0.0     0.0    0.00
 2020 202    68       0   12724  109128       0  109128  109127     1.0    0.00     0.0     0.0    0.00     0.0     0.0    0.00
 2020 203    69       0   12723  109123       0  109123  109122     1.1    0.00     0.0     0.0    0.00     0.0     0.0    0.00
 2020 204    70       0   12723  109118       0  109118  109117     1.2    0.00     0.0     0.0    0.00     0.0     0.0    0.00
 2020 205    71       0   12722  109113       0  109113  109112     1.3    0.00     0.0     0.0    0.00     0.0     0.0    0.00
 2020 206    72       0   12722  109108       0  109108  109107     1.4    0.00     0.0     0.0    0.00     0.0     0.0    0.00
 2020 207    73       0   12721  109103       0  109103  109102     1.5    0.00     0.0     0.0    0.00     0.0     0.0    0.00
 2020 208    74       0   12721  109098       0  109098  109097     1.7    0.00     0.0     0.0    0.00     0.0     0.0    0.00
 2020 209    75       0   12720  109093       0  109093  109092     1.8    0.00     0.0     0.0    0.00     0.0     0.0    0.00
 2020 210    76       0   12720  109088       0  109088  109086     1.9    0.00     0.0     0.0    0.00     0.0     0.0    0.00
 2020 211    77       0   12719  109083       0  109083  109081     2.1    0.00     0.0     0.0    0.00     0.0     0.0    0.00
 2020 212    78       0   12719  109078       0  109078  109076     2.2    0.00     0.0     0.0    0.00     0.0     0.0    0.00
 2020 213    79       0   12718  109073       0  109073  109071     2.3    0.00     0.0     0.0    0.00     0.0     0.0    0.00
 2020 214    80       0   12717  109069       0  109069  109066     2.5    0.00     0.0     0.0    0.00     0.0     0.0    0.00
 2020 215    81       0   12717  109064       0  109064  109061     2.6    0.00     0.0     0.0    0.00     0.0     0.0    0.00
 2020 216    82       0   12716  109059       0  109059  109056     2.8    0.00     0.0     0.0    0.00     0.0     0.0    0.00
 2020 217    83       0   12716  109054       0  109054  109051     3.0    0.00     0.0     0.0    0.00     0.0     0.0    0.00
 2020 218    84       0   12715  109049       0  109049  109046     3.1    0.00     0.0     0.0    0.00     0.0     0.0    0.00
 2020 219    85       0   12715  109044       0  109044  109041     3.3    0.00     0.0     0.0    0.00     0.0     0.0    0.00
 2020 220    86       0   12714  109039       0  109039  109036     3.5    0.00     0.0     0.0    0.00     0.0     0.0    0.00
 2020 221    87       0   12714  109034       0  109034  109031     3.7    0.00     0.0     0.0    0.00     0.0     0.0    0.00
 2020 222    88       0   12713  109030       0  109030  109026     3.9    0.00     0.0     0.0    0.00     0.0     0.0    0.00
 2020 223    89       0   12713  109025       0  109025  109021     4.1    0.00     0.0     0.0    0.00     0.0     0.0    0.00
 2020 224    90       0   12712  109020       0  109020  109016     4.3    0.00     0.0     0.0    0.00     0.0     0.0    0.00
 2020 225    91       0   12712  109015       0  109015  109011     4.5    0.00     0.0     0.0    0.00     0.0     0.0    0.00
 2020 226    92       0   12711  109010       0  109010  109006     4.7    0.00     0.0     0.0    0.00     0.0     0.0    0.00
 2020 227    93       0   12711  109006       0  109006  109001     5.0    0.00     0.0     0.0    0.00     0.0     0.0    0.00
 2020 228    94       0   12710  109001       0  109001  108996     5.3    0.00     0.0     0.0    0.00     0.0     0.0    0.00
 2020 229    95       0   12710  108996       0  108996  108991     5.5    0.00     0.0     0.0    0.00     0.0     0.0    0.00
 2020 230    96       0   12709  108991       0  108991  108986     5.8    0.00     0.0     0.0    0.00     0.0     0.0    0.00
 2020 231    97       0   12709  108987       0  108987  108981     6.1    0.00     0.0     0.0    0.00     0.0     0.0    0.00
 2020 232    98       0   12708  108982       0  108982  108976     6.4    0.00     0.0     0.0    0.00     0.0     0.0    0.00
 2020 233    99       0   12708  108977       0  108977  108971     6.7    0.00     0.0     0.0    0.00     0.0     0.0    0.00
 2020 234   100       0   12707  108973       0  108973  108966     7.0    0.00     0.0     0.0    0.00     0.0     0.0    0.00
 2020 235   101       0   12707  108968       0  108968  108961     7.4    0.00     0.0     0.0    0.00     0.0     0.0    0.00
 2020 236   102       0   12706  108964       0  108964  108956     7.7    0.00     0.0     0.0    0.00     0.0     0.0    0.00
 2020 237   103       0   12706  108959       0  108959  108951     8.0    0.00     0.0     0.0    0.00     0.0     0.0    0.00
 2020 238   104       0   12705  108955       0  108955  108947     8.4    0.00     0.0     0.0    0.00     0.0     0.0    0.00
 2020 239   105       0   12705  108951       0  108951  108942     8.7    0.00     0.0     0.0    0.00     0.0     0.0    0.00
 2020 240   106       0   12704  108947       0  108947  108938     9.1    0.00     0.0     0.0    0.00     0.0     0.0    0.00
 2020 241   107       0   12704  108942       0  108942  108933     9.4    0.00     0.0     0.0    0.00     0.0     0.0    0.00
 2020 242   108       0   12703  108938       0  108938  108928     9.8    0.00     0.0     0.0    0.00     0.0     0.0    0.00
 2020 243   109       0   12703  108933       0  108933  108923    10.2    0.00     0.0     0.0    0.00     0.0     0.0    0.00
 2020 244   110       0   12702  108929       0  108929  108918    10.6    0.00     0.0     0.0    0.00     0.0     0.0    0.00
 2020 245   111       0   12702  108924       0  108924  108913    11.0    0.00     0.0     0.0    0.00     0.0     0.0    0.00
 2020 246   112       0   12701  108919       0  108919  108908    11.4    0.00     0.0     0.0    0.00     0.0     0.0    0.00
 2020 247   113       0   12701  108915       0  108915  108903    11.9    0.00     0.0     0.0    0.00     0.0     0.0    0.00
 2020 248   114       0   12700  108910       0  108910  108898    12.3    0.00     0.0     0.0    0.00     0.0     0.0    0.00
 2020 249   115       0   12700  108905       0  108905  108893    12.8    0.00     0.0     0.0    0.00     0.0     0.0    0.00
 2020 250   116       0   12699  108901       0  108901  108888    13.3    0.00     0.0     0.0    0.00     0.0     0.0    0.00
 2020 251   117       0   12698  108896       0  108896  108882    13.8    0.00     0.0     0.0    0.00     0.0     0.0    0.00
 2020 252   118       0   12698  108892       0  108892  108877    14.3    0.00     0.0     0.0    0.00     0.0     0.0    0.00
 2020 253   119       0   12697  108887       0  108887  108872    14.8    0.00     0.0     0.0    0.00     0.0     0.0    0.00
 2020 254   120       0   12697  108882       0  108882  108867    15.4    0.00     0.0     0.0    0.00     0.0     0.0    0.00
 2020 255   121       0   12696  108878       0  108878  108862    15.9    0.00     0.0     0.0    0.00     0.0     0.0    0.00
 2020 256   122       0   12696  108873       0  108873  108857    16.5    0.00     0.0     0.0    0.00     0.0     0.0    0.00
 2020 257   123       0   12695  108868       0  108868  108851    17.0    0.00     0.0     0.0    0.00     0.0     0.0    0.00
 2020 258   124       0   12695  108864       0  108864  108846    17.6    0.00     0.0     0.0    0.00     0.0     0.0    0.00
 2020 259   125       0   12694  108859       0  108859  108841    18.2    0.00     0.0     0.0    0.00     0.0     0.0    0.00
 2020 260   126       0   12694  108855       0  108855  108836    18.9    0.00     0.0     0.0    0.00     0.0     0.0    0.00
 2020 261   127       0   12693  108850       0  108850  108831    19.5    0.00     0.0     0.0    0.00     0.0     0.0    0.00
 2020 262   128       0   12693  108846       0  108846  108825    20.1    0.00     0.0     0.0    0.00     0.0     0.0    0.00
 2020 263   129       0   12692  108841       0  108841  108820    20.8    0.00     0.0     0.0    0.00     0.0     0.0    0.00
 2020 264   130       0   12691  108836       0  108836  108815    21.5    0.00     0.0     0.0    0.00     0.0     0.0    0.00
 2020 265   131       0   12691  108832       0  108832  108810    22.1    0.00     0.0     0.0    0.00     0.0     0.0    0.00
 2020 266   132       0   12690  108827       0  108827  108805    22.9    0.00     0.0     0.0    0.00     0.0     0.0    0.00
 2020 267   133       0   12690  108823       0  108823  108799    23.6    0.00     0.0     0.0    0.00     0.0     0.0    0.00
 2020 268   134       0   12689  108818       0  108818  108794    24.4    0.00     0.0     0.0    0.00     0.0     0.0    0.00
 2020 269   135       0   12689  108814       0  108814  108789    25.1    0.00     0.0     0.0    0.00     0.0     0.0    0.00
 2020 270   136       0   12688  108809       0  108809  108784    25.9    0.00     0.0     0.0    0.00     0.0     0.0    0.00
 2020 271   137       0   12688  108805       0  108805  108778    26.6    0.00     0.0     0.0    0.00     0.0     0.0    0.00
 2020 272   138       0   12687  108801       0  108801  108773    27.4    0.00     0.0     0.0    0.00     0.0     0.0    0.00
 2020 273   139       0   12687  108796       0  108796  108768    28.2    0.00     0.0     0.0    0.00     0.0     0.0    0.00
 2020 274   140       0   12686  108792       0  108792  108763    28.9    0.00     0.0     0.0    0.00     0.0     0.0    0.00
 2020 275   141       0   12686  108788       0  108788  108758    29.7    0.00     0.0     0.0    0.00     0.0     0.0    0.00
 2020 276   142       0   12685  108783       0  108783  108753    30.5    0.00     0.0     0.0    0.00     0.0     0.0    0.00
 2020 277   143       0   12684  108779       0  108779  108748    31.3    0.00     0.0     0.0    0.00     0.0     0.0    0.00
 2020 278   144       0   12684  108775       0  108775  108742    32.2    0.00     0.0     0.0    0.00     0.0     0.0    0.00
 2020 279   145       0   12683  108770       0  108770  108737    33.0    0.00     0.0     0.0    0.00     0.0     0.0    0.00
 2020 280   146       0   12683  108766       0  108766  108732    34.0    0.00     0.0     0.0    0.00     0.0     0.0    0.00
 2020 281   147       0   12682  108761       0  108761  108726    34.9    0.00     0.0     0.0    0.00     0.0     0.0    0.00
 2020 282   148       0   12682  108757       0  108757  108721    35.8    0.00     0.0     0.0    0.00     0.0     0.0    0.00
 2020 283   149       0   12681  108753       0  108753  108716    36.8    0.00     0.0     0.0    0.00     0.0     0.0    0.00
 2020 284   150       0   12681  108748       0  108748  108711    37.7    0.00     0.0     0.0    0.00     0.0     0.0    0.00
 2020 285   151       0   12680  108744       0  108744  108705    38.6    0.00     0.0     0.0    0.00     0.0     0.0    0.00
 2020 286   152       0   12680  108740       0  108740  108700    39.6    0.00     0.0     0.0    0.00     0.0     0.0    0.00
 2020 287   153       0   12679  108735       0  108735  108695    40.6    0.00     0.0     0.0    0.00     0.0     0.0    0.00
 2020 288   154       0   12678  108731       0  108731  108690    41.6    0.00     0.0     0.0    0.00     0.0     0.0    0.00
 2020 289   155       0   12678  108727       0  108727  108684    42.6    0.00     0.0     0.0    0.00     0.0     0.0    0.00
 2020 290   156       0   12677  108722       0  108722  108679    43.6    0.00     0.0     0.0    0.00     0.0     0.0    0.00
 2020 291   157       0   12677  108718       0  108718  108673    44.7    0.00     0.0     0.0    0.00     0.0     0.0    0.00
 2020 292   158       0   12676  108714       0  108714  108668    45.8    0.00     0.0     0.0    0.00     0.0     0.0    0.00
 2020 293   159       0   12676  108710       0  108710  108663    46.9    0.00     0.0     0.0    0.00     0.0     0.0    0.00
 2020 294   160       0   12675  108705       0  108705  108657    48.0    0.00     0.0     0.0    0.00     0.0     0.0    0.00
 2020 295   161       0   12674  108701       0  108701  108652    49.1    0.00     0.0     0.0    0.00     0.0     0.0    0.00
 2020 296   162       0   12674  108697       0  108697  108646    50.2    0.00     0.0     0.0    0.00     0.0     0.0    0.00
 2020 297   163       0   12673  108692       0  108692  108641    51.3    0.00     0.0     0.0    0.00     0.0     0.0    0.00
 2020 298   164       0   12673  108688       0  108688  108636    52.5    0.00     0.0     0.0    0.00     0.0     0.0    0.00
 2020 299   165       0   12672  108684       0  108684  108630    53.6    0.00     0.0     0.0    0.00     0.0     0.0    0.00
 2020 300   166       0   12672  108679       0  108679  108625    54.8    0.00     0.0     0.0    0.00     0.0     0.0    0.00
 2020 301   167       0   12671  108675       0  108675  108619    56.1    0.00     0.0     0.0    0.00     0.0     0.0    0.00
 2020 302   168       0   12670  108671       0  108671  108613    57.3    0.00     0.0     0.0    0.00     0.0     0.0    0.00
 2020 303   169       0   12670  108666       0  108666  108608    58.5    0.00     0.0     0.0    0.00     0.0     0.0    0.00
 2020 304   170       0   12669  108662       0  108662  108603    59.8    0.00     0.0     0.0    0.00     0.0     0.0    0.00
 2020 305   171       0   12669  108658       0  108658  108597    61.1    0.00     0.0     0.0    0.00     0.0     0.0    0.00
 2020 306   172       0   12668  108655       0  108655  108592    62.4    0.00     0.0     0.0    0.00     0.0     0.0    0.00
 2020 307   173       0   12668  108651       0  108651  108587    63.8    0.00     0.0     0.0    0.00     0.0     0.0    0.00
 2020 308   174       0   12667  108647       0  108647  108582    65.1    0.00     0.0     0.0    0.00     0.0     0.0    0.00
 2020 309   175       0   12667  108643       0  108643  108576    66.4    0.00     0.0     0.0    0.00     0.0     0.0    0.00
 2020 310   176       0   12666  108639       0  108639  108571    67.7    0.00     0.0     0.0    0.00     0.0     0.0    0.00
 2020 311   177       0   12665  108635       0  108635  108566    69.0    0.00     0.0     0.0    0.00     0.0     0.0    0.00
 2020 312   178       0   12665  108631       0  108631  108561    70.3    0.00     0.0     0.0    0.00     0.0     0.0    0.00
 2020 313   179       0   12664  108628       0  108628  108556    71.6    0.00     0.0     0.0    0.00     0.0     0.0    0.00
 2020 314   180       0   12664  108624       0  108624  108551    72.9    0.00     0.0     0.0    0.00     0.0     0.0    0.00
 2020 315   181       0   12663  108620       0  108620  108546    74.2    0.00     0.0     0.0    0.00     0.0     0.0    0.00
 2020 316   182       0   12663  108616       0  108616  108541    75.5    0.00     0.0     0.0    0.00     0.0     0.0    0.00
 2020 317   183       0   12662  108613       0  108613  108536    76.7    0.00     0.0     0.0    0.00     0.0     0.0    0.00
 2020 318   184       0   12662  108609       0  108609  108531    78.0    0.00     0.0     0.0    0.00     0.0     0.0    0.00
 2020 319   185       0   12661  108606       0  108606  108526    79.3    0.00     0.0     0.0    0.00     0.0     0.0    0.00
 2020 320   186       0   12661  108602       0  108602  108522    80.6    0.00     0.0     0.0    0.00     0.0     0.0    0.00
 2020 321   187       0   12660  108599       0  108599  108517    81.9    0.00     0.0     0.0    0.00     0.0     0.0    0.00
 2020 322   188       0   12660  108595       0  108595  108512    83.2    0.00     0.0     0.0    0.00     0.0     0.0    0.00
 2020 323   189       0   12659  108591       0  108591  108507    84.5    0.00     0.0     0.0    0.00     0.0     0.0    0.00
 2020 324   190       0   12658  108588       0  108588  108502    85.9    0.00     0.0     0.0    0.00     0.0     0.0    0.00
 2020 325   191       0   12658  108584       0  108584  108497    87.3    0.00     0.0     0.0    0.00     0.0     0.0    0.00
 2020 326   192       0   12657  108581       0  108581  108492    88.7    0.00     0.0     0.0    0.00     0.0     0.0    0.00
 2020 327   193       0   12657  108579       1  108577  108487    90.1    0.00     0.0     0.0    0.00     0.0     0.0    0.00
 2020 328   194       0   12656  108577       3  108573  108482    91.5    0.00     0.0     0.0    0.00     0.0     0.0    0.00
 2020 329   195       0   12656  108575       5  108570  108477    92.9    0.00     0.0     0.0    0.00     0.0     0.0    0.00
 2020 330   196       0   12655  108575       8  108566  108472    94.3    0.00     0.0     0.0    0.00     0.0     0.0    0.00
 2020 331   197       0   12655  108574      12  108563  108467    95.8    0.00     0.0     0.0    0.00     0.0     0.0    0.00
 2020 332   198       0   12654  108573      14  108559  108462    97.2    0.00     0.0     0.0    0.00     0.0     0.0    0.00
 2020 333   199       0   12653  108573      17  108556  108457    98.6    0.00     0.0     0.0    0.00     0.0     0.0    0.00
 2020 334   200       0   12653  108572      20  108552  108452   100.1    0.00     0.0     0.0    0.00     0.0     0.0    0.00
 2020 335   201       0   12652  108571      22  108549  108448   101.5    0.00     0.0     0.0    0.00     0.0     0.0    0.00
 2020 336   202       0   12652  108569      24  108546  108443   102.9    0.00     0.0     0.0    0.00     0.0     0.0    0.00
 2020 337   203       0   12651  108567      25  108542  108438   104.3    0.00     0.0     0.0    0.00     0.0     0.0    0.00
 2020 338   204       0   12651  108565      26  108538  108433   105.8    0.00     0.0     0.0    0.00     0.0     0.0    0.00
 2020 339   205       0   12650  108563      28  108535  108428   107.3    0.00     0.0     0.0    0.00     0.0     0.0    0.00
 2020 340   206       0   12650  108561      29  108532  108423   108.8    0.00     0.0     0.0    0.00     0.0     0.0    0.00
 2020 341   207       0   12649  108559      31  108528  108418   110.3    0.00     0.0     0.0    0.00     0.0     0.0    0.00
 2020 342   208       0   12648  108557      33  108524  108413   111.7    0.00     0.0     0.0    0.00     0.0     0.0    0.00
 2020 343   209       0   12648  108555      34  108521  108408   113.2    0.00     0.0     0.0    0.00     0.0     0.0    0.00
 2020 344   210       0   12647  108553      36  108517  108403   114.6    0.00     0.0     0.0    0.00     0.0     0.0    0.00
 2020 345   211       0   12647  108551      37  108514  108398   116.0    0.00     0.0     0.0    0.00     0.0     0.0    0.00
 2020 346   212       0   12646  108550      39  108511  108393   117.4    0.00     0.0     0.0    0.00     0.0     0.0    0.00
 2020 347   213       0   12646  108549      41  108507  108389   118.7    0.00     0.0     0.0    0.00     0.0     0.0    0.00
 2020 348   214       0   12645  108547      43  108504  108384   120.1    0.00     0.0     0.0    0.00     0.0     0.0    0.00
 2020 349   215       0   12645  108545      45  108500  108379   121.4    0.00     0.0     0.0    0.00     0.0     0.0    0.00
 2020 350   216       0   12644  108544      47  108497  108374   122.8    0.00     0.0     0.0    0.00     0.0     0.0    0.00
 2020 351   217       0   12643  108543      49  108494  108369   124.2    0.00     0.0     0.0    0.00     0.0     0.0    0.00
 2020 352   218       0   12643  108542      52  108490  108365   125.7    0.00     0.0     0.0    0.00     0.0     0.0    0.00
 2020 353   219       0   12643  108542      54  108487  108360   127.2    0.00     0.0     0.0    0.00     0.0     0.0    0.00
 2020 354   220       0   12642  108541      57  108484  108355   128.6    0.00     0.0     0.0    0.00     0.0     0.0    0.00
 2020 355   221       0   12641  108540      59  108480  108350   130.1    0.00     0.0     0.0    0.00     0.0     0.0    0.00
 2020 356   222       0   12641  108539      62  108477  108345   131.5    0.00     0.0     0.0    0.00     0.0     0.0    0.00
 2020 357   223       0   12640  108538      65  108473  108340   132.9    0.00     0.0     0.0    0.00     0.0     0.0    0.00
 2020 358   224       0   12640  108539      69  108470  108336   134.3    0.00     0.0     0.0    0.00     0.0     0.0    0.00
 2020 359   225       0   12639  108539      72  108467  108331   135.7    0.00     0.0     0.0    0.00     0.0     0.0    0.00
 2020 360   226       0   12639  108539      76  108464  108327   137.1    0.00     0.0     0.0    0.00     0.0     0.0    0.00
 2020 361   227       0   12638  108540      79  108461  108322   138.5    0.00     0.0     0.0    0.00     0.0     0.0    0.00
 2020 362   228       0   12638  108539      82  108457  108317   140.0    0.00     0.0     0.0    0.00     0.0     0.0    0.00
 2020 363   229       0   12637  108539      85  108454  108312   141.4    0.00     0.0     0.0    0.00     0.0     0.0    0.00
 2020 364   230       0   12636  108538      88  108450  108307   142.9    0.00     0.0     0.0    0.00     0.0     0.0    0.00
 2020 365   231       0   12636  108537      90  108447  108302   144.4    0.00     0.0     0.0    0.00     0.0     0.0    0.00
 2020 366   232       0   12635  108537      93  108444  108298   145.8    0.00     0.0     0.0    0.00     0.0     0.0    0.00
 2021 001   233       0   12635  108537      96  108441  108293   147.3    0.00     0.0     0.0    0.00     0.0     0.0    0.00
 2021 002   234       0   12634  108536      99  108437  108289   148.7    0.00     0.0     0.0    0.00     0.0     0.0    0.00
 2021 003   235       0   12634  108536     102  108434  108284   150.2    0.00     0.0     0.0    0.00     0.0     0.0    0.00
 2021 004   236       0   12633  108536     106  108430  108279   151.6    0.00     0.0     0.0    0.00     0.0     0.0    0.00
 2021 005   237       0   12632  108536     109  108427  108274   153.1    0.00     0.0     0.0    0.00     0.0     0.0    0.00
 2021 006   238       0   12632  108536     113  108424  108269   154.5    0.00     0.0     0.0    0.00     0.0     0.0    0.00
 2021 007   239       0   12631  108537     117  108420  108265   155.9    0.00     0.0     0.0    0.00     0.0     0.0    0.00
 2021 008   240       0   12631  108537     120  108418  108260   157.4    0.00     0.0     0.0    0.00     0.0     0.0    0.00
 2021 009   241       0   12630  108538     124  108414  108255   158.8    0.00     0.0     0.0    0.00     0.0     0.0    0.00
 2021 010   242       0   12630  108539     128  108411  108250   160.3    0.00     0.0     0.0    0.00     0.0     0.0    0.00
 2021 011   243       0   12629  108539     132  108407  108246   161.7    0.00     0.0     0.0    0.00     0.0     0.0    0.00
 2021 012   244       0   12629  108541     137  108404  108241   163.2    0.00     0.0     0.0    0.00     0.0     0.0    0.00
 2021 013   245       0   12628  108543     142  108401  108236   164.7    0.00     0.0     0.0    0.00     0.0     0.0    0.00
 2021 014   246       0   12628  108545     147  108398  108232   166.2    0.00     0.0     0.0    0.00     0.0     0.0    0.00
 2021 015   247       0   12627  108547     152  108394  108227   167.7    0.00     0.0     0.0    0.00     0.0     0.0    0.00
 2021 016   248       0   12626  108548     157  108391  108222   169.2    0.00     0.0     0.0    0.00     0.0     0.0    0.00
 2021 017   249       0   12626  108548     161  108387  108217   170.7    0.00     0.0     0.0    0.00     0.0     0.0    0.00
 2021 018   250       0   12625  108550     166  108384  108212   172.2    0.00     0.0     0.0    0.00     0.0     0.0    0.00
 2021 019   251       0   12625  108553     172  108381  108207   173.7    0.00     0.0     0.0    0.00     0.0     0.0    0.00
 2021 020   252       0   12624  108556     178  108378  108203   175.1    0.00     0.0     0.0    0.00     0.0     0.0    0.00
 2021 021   253       0   12624  108557     182  108375  108198   176.6    0.00     0.0     0.0    0.00     0.0     0.0    0.00
 2021 022   254       0   12623  108558     186  108371  108193   178.0    0.00     0.0     0.0    0.00     0.0     0.0    0.00
 2021 023   255       0   12622  108558     190  108368  108188   179.5    0.00     0.0     0.0    0.00     0.0     0.0    0.00
 2021 024   256       0   12622  108559     194  108364  108184   180.8    0.00     0.0     0.0    0.00     0.0     0.0    0.00
 2021 025   257       0   12621  108559     198  108361  108179   182.2    0.00     0.0     0.0    0.00     0.0     0.0    0.00
 2021 026   258       0   12621  108561     203  108358  108175   183.6    0.00     0.0     0.0    0.00     0.0     0.0    0.00
 2021 027   259       0   12620  108562     207  108355  108170   184.9    0.00     0.0     0.0    0.00     0.0     0.0    0.00
 2021 028   260       0   12620  108563     211  108352  108166   186.3    0.00     0.0     0.0    0.00     0.0     0.0    0.00
 2021 029   261       0   12619  108564     215  108349  108161   187.7    0.00     0.0     0.0    0.00     0.0     0.0    0.00
 2021 030   262       0   12619  108564     219  108345  108156   189.1    0.00     0.0     0.0    0.00     0.0     0.0    0.00
 2021 031   263       0   12618  108565     223  108342  108152   190.5    0.00     0.0     0.0    0.00     0.0     0.0    0.00
 2021 032   264       0   12618  108566     227  108339  108147   191.9    0.00     0.0     0.0    0.00     0.0     0.0    0.00
 2021 033   265       0   12617  108568     231  108336  108143   193.3    0.00     0.0     0.0    0.00     0.0     0.0    0.00
 2021 034   266       0   12617  108568     235  108333  108138   194.8    0.00     0.0     0.0    0.00     0.0     0.0    0.00
 2021 035   267       0   12616  108569     239  108329  108133   196.2    0.00     0.0     0.0    0.00     0.0     0.0    0.00
 2021 036   268       0   12615  108569     243  108326  108128   197.7    0.00     0.0     0.0    0.00     0.0     0.0    0.00
 2021 037   269       0   12615  108569     246  108323  108124   199.1    0.00     0.0     0.0    0.00     0.0     0.0    0.00
 2021 038   270       0   12614  108569     250  108319  108119   200.6    0.00     0.0     0.0    0.00     0.0     0.0    0.00
 2021 039   271       0   12614  108570     253  108316  108114   202.1    0.00     0.0     0.0    0.00     0.0     0.0    0.00
 2021 040   272       0   12613  108571     258  108313  108110   203.5    0.00     0.0     0.0    0.00     0.0     0.0    0.00
 2021 041   273       0   12613  108571     261  108310  108105   205.0    0.00     0.0     0.0    0.00     0.0     0.0    0.00
 2021 042   274       0   12612  108571     265  108306  108100   206.4    0.00     0.0     0.0    0.00     0.0     0.0    0.00
 2021 043   275       0   12611  108572     269  108303  108095   207.9    0.00     0.0     0.0    0.00     0.0     0.0    0.00
 2021 044   276       0   12611  108571     271  108299  108090   209.3    0.00     0.0     0.0    0.00     0.0     0.0    0.00
 2021 045   277       0   12610  108570     275  108296  108085   210.8    0.00     0.0     0.0    0.00     0.0     0.0    0.00
 2021 046   278       0   12609  108571     278  108293  108080   212.2    0.00     0.0     0.0    0.00     0.0     0.0    0.00
 2021 047   279       0   12609  108570     281  108290  108076   213.6    0.00     0.0     0.0    0.00     0.0     0.0    0.00
 2021 048   280       0   12609  108571     284  108287  108071   215.1    0.00     0.0     0.0    0.00     0.0     0.0    0.00
 2021 049   281       0   12608  108570     287  108283  108067   216.5    0.00     0.0     0.0    0.00     0.0     0.0    0.00
 2021 050   282       0   12607  108569     289  108280  108062   217.9    0.00     0.0     0.0    0.00     0.0     0.0    0.00
 2021 051   283       0   12607  108567     291  108276  108057   219.3    0.00     0.0     0.0    0.00     0.0     0.0    0.00
 2021 052   284       0   12606  108566     293  108273  108052   220.6    0.00     0.0     0.0    0.00     0.0     0.0    0.00
 2021 053   285       0   12606  108565     295  108270  108048   221.8    0.00     0.0     0.0    0.00     0.0     0.0    0.00
 2021 054   286       0   12605  108564     297  108267  108044   223.1    0.00     0.0     0.0    0.00     0.0     0.0    0.00
 2021 055   287       0   12604  108563     299  108264  108039   224.4    0.00     0.0     0.0    0.00     0.0     0.0    0.00
 2021 056   288       0   12604  108563     302  108261  108035   225.7    0.00     0.0     0.0    0.00     0.0     0.0    0.00
 2021 057   289       0   12603  108561     304  108257  108030   227.0    0.00     0.0     0.0    0.00     0.0     0.0    0.00
 2021 058   290       0   12603  108560     306  108254  108026   228.4    0.00     0.0     0.0    0.00     0.0     0.0    0.00
 2021 059   291       0   12602  108558     308  108251  108021   229.8    0.00     0.0     0.0    0.00     0.0     0.0    0.00
 2021 060   292       0   12602  108557     310  108247  108016   231.2    0.00     0.0     0.0    0.00     0.0     0.0    0.00
 2021 061   293       0   12601  108555     311  108244  108011   232.6    0.00     0.0     0.0    0.00     0.0     0.0    0.00
 2021 062   294       0   12600  108554     313  108241  108007   234.0    0.00     0.0     0.0    0.00     0.0     0.0    0.00
 2021 063   295       0   12600  108553     315  108237  108002   235.4    0.00     0.0     0.0    0.00     0.0     0.0    0.00
 2021 064   296       0   12599  108551     317  108234  107997   236.7    0.00     0.0     0.0    0.00     0.0     0.0    0.00
 2021 065   297       0   12599  108549     318  108230  107992   238.1    0.00     0.0     0.0    0.00     0.0     0.0    0.00
[...]
 2019 053   211       0   20734  170405     224  170181  170006   174.6    0.00     0.0     0.0    0.00     0.0     0.0    0.00
 2019 054   212       0   20734  170407     228  170178  170002   176.1    0.00     0.0     0.0    0.00     0.0     0.0    0.00
 2019 055   213       0   20734  170409     233  170176  169998   177.5    0.00     0.0     0.0    0.00     0.0     0.0    0.00
 2019 056   214       0   20733  170412     239  170173  169994   178.8    0.00     0.0     0.0    0.00     0.0     0.0    0.00
 2019 057   215       0   20733  170414     243  170170  169990   180.2    0.00     0.0     0.0    0.00     0.0     0.0    0.00
 2019 058   216       0   20733  170415     247  170168  169986   181.5    0.00     0.0     0.0    0.00     0.0     0.0    0.00
 2019 059   217       0   20733  170416     251  170165  169982   182.9    0.00     0.0     0.0    0.00     0.0     0.0    0.00
 2019 060   218       0   20732  170417     254  170163  169978   184.2    0.00     0.0     0.0    0.00     0.0     0.0    0.00
 2019 061   219       0   20732  170417     258  170160  169974   185.5    0.00     0.0     0.0    0.00     0.0     0.0    0.00
 2019 062   220       0   20731  170418     261  170157  169970   186.7    0.00     0.0     0.0    0.00     0.0     0.0    0.00
 2019 063   221       0   20731  170418     264  170154  169966   188.0    0.00     0.0     0.0    0.00     0.0     0.0    0.00
 2019 064   222       0   20730  170418     268  170151  169961   189.3    0.00     0.0     0.0    0.00     0.0     0.0    0.00
 2019 065   223       0   20729  170418     271  170147  169957   190.6    0.00     0.0     0.0    0.00     0.0     0.0    0.00
 2019 066   224       0   20728  170418     274  170144  169952   191.9    0.00     0.0     0.0    0.00     0.0     0.0    0.00
 2019 067   225       0   20727  170417     277  170141  169947   193.2    0.00     0.0     0.0    0.00     0.0     0.0    0.00
 2019 068   226       0   20727  170417     280  170137  169943   194.6    0.00     0.0     0.0    0.00     0.0     0.0    0.00
 2019 069   227       0   20726  170416     282  170134  169938   196.0    0.00     0.0     0.0    0.00     0.0     0.0    0.00
 2019 070   228       0   20725  170416     285  170131  169934   197.3    0.00     0.0     0.0    0.00     0.0     0.0    0.00
 2019 071   229       0   20724  170416     288  170128  169929   198.6    0.00     0.0     0.0    0.00     0.0     0.0    0.00
 2019 072   230       0   20723  170415     291  170125  169925   200.0    0.00     0.0     0.0    0.00     0.0     0.0    0.00
 2019 073   231       0   20722  170415     293  170122  169921   201.3    0.00     0.0     0.0    0.00     0.0     0.0    0.00
 2019 074   232       0   20722  170415     296  170119  169916   202.6    0.00     0.0     0.0    0.00     0.0     0.0    0.00
 2019 075   233       0   20721  170415     299  170116  169912   204.0    0.00     0.0     0.0    0.00     0.0     0.0    0.00
 2019 076   234       0   20721  170415     301  170114  169908   205.4    0.00     0.0     0.0    0.00     0.0     0.0    0.00
 2019 077   235       0   20720  170415     304  170111  169904   206.7    0.00     0.0     0.0    0.00     0.0     0.0    0.00
 2019 078   236       0   20719  170415     306  170109  169901   208.1    0.00     0.0     0.0    0.00     0.0     0.0    0.00
 2019 079   237       0   20719  170415     309  170106  169897   209.5    0.00     0.0     0.0    0.00     0.0     0.0    0.00
 2019 080   238       0   20718  170415     311  170104  169893   210.9    0.00     0.0     0.0    0.00     0.0     0.0    0.00
 2019 081   239       0   20718  170415     314  170101  169889   212.2    0.00     0.0     0.0    0.00     0.0     0.0    0.00
 2019 082   240       0   20717  170414     316  170099  169885   213.6    0.00     0.0     0.0    0.00     0.0     0.0    0.00
 2019 083   241       0   20717  170414     318  170096  169881   215.0    0.00     0.0     0.0    0.00     0.0     0.0    0.00
 2019 084   242       0   20717  170414     320  170094  169878   216.3    0.00     0.0     0.0    0.00     0.0     0.0    0.00
 2019 085   243       0   20716  170413     321  170092  169874   217.6    0.00     0.0     0.0    0.00     0.0     0.0    0.00
 2019 086   244       0   20716  170413     323  170090  169871   219.0    0.00     0.0     0.0    0.00     0.0     0.0    0.00
 2019 087   245       0   20715  170412     325  170088  169867   220.3    0.00     0.0     0.0    0.00     0.0     0.0    0.00
 2019 088   246       0   20715  170412     326  170086  169864   221.6    0.00     0.0     0.0    0.00     0.0     0.0    0.00
 2019 089   247       0   20715  170411     327  170084  169861   223.0    0.00     0.0     0.0    0.00     0.0     0.0    0.00
 2019 090   248       0   20715  170410     328  170082  169857   224.3    0.00     0.0     0.0    0.00     0.0     0.0    0.00
 2019 091   249       0   20714  170409     329  170080  169854   225.6    0.00     0.0     0.0    0.00     0.0     0.0    0.00
 2019 092   250       0   20714  170408     330  170078  169851   226.9    0.00     0.0     0.0    0.00     0.0     0.0    0.00
 2019 093   251       0   20714  170407     331  170076  169848   228.2    0.00     0.0     0.0    0.00     0.0     0.0    0.00
 2019 094   252       0   20713  170406     332  170074  169845   229.5    0.00     0.0     0.0    0.00     0.0     0.0    0.00
 2019 095   253       0   20713  170405     333  170072  169842   230.8    0.00     0.0     0.0    0.00     0.0     0.0    0.00
 2019 096   254       0   20713  170404     334  170071  169838   232.2    0.00     0.0     0.0    0.00     0.0     0.0    0.00
 2019 097   255       0   20713  170403     334  170069  169835   233.6    0.00     0.0     0.0    0.00     0.0     0.0    0.00
 2019 098   256       0   20712  170402     335  170067  169832   234.9    0.00     0.0     0.0    0.00     0.0     0.0    0.00
 2019 099   257       0   20712  170400     336  170064  169828   236.3    0.00     0.0     0.0    0.00     0.0     0.0    0.00
 2019 100   258       0   20712  170399     337  170062  169825   237.6    0.00     0.0     0.0    0.00     0.0     0.0    0.00
 2019 101   259       0   20711  170398     337  170060  169821   238.9    0.00     0.0     0.0    0.00     0.0     0.0    0.00
 2019 102   260       0   20711  170396     338  170058  169818   240.3    0.00     0.0     0.0    0.00     0.0     0.0    0.00
 2019 103   261       0   20711  170395     339  170056  169814   241.6    0.00     0.0     0.0    0.00     0.0     0.0    0.00
 2019 104   262       0   20710  170393     339  170054  169811   242.9    0.00     0.0     0.0    0.00     0.0     0.0    0.00
 2019 105   263       0   20710  170391     339  170051  169807   244.1    0.00     0.0     0.0    0.00     0.0     0.0    0.00
 2019 106   264       0   20709  170389     340  170049  169804   245.3    0.00     0.0     0.0    0.00     0.0     0.0    0.00
 2019 107   265       0   20709  170387     340  170047  169800   246.6    0.00     0.0     0.0    0.00     0.0     0.0    0.00
 2019 108   266       0   20709  170386     341  170045  169797   247.8    0.00     0.0     0.0    0.00     0.0     0.0    0.00
 2019 109   267       0   20708  170384     341  170043  169794   249.1    0.00     0.0     0.0    0.00     0.0     0.0    0.00
 2019 110   268       0   20708  170383     342  170041  169791   250.3    0.00     0.0     0.0    0.00     0.0     0.0    0.00
 2019 111   269       0   20707  170381     342  170039  169788   251.6    0.00     0.0     0.0    0.00     0.0     0.0    0.00
 2019 112   270       0   20707  170380     343  170037  169785   252.8    0.00     0.0     0.0    0.00     0.0     0.0    0.00
 2019 113   271       0   20707  170378     343  170036  169782   254.0    0.00     0.0     0.0    0.00     0.0     0.0    0.00
 2019 114   272       0   20707  170377     343  170034  169778   255.2    0.00     0.0     0.0    0.00     0.0     0.0    0.00
 2019 115   273       0   20706  170375     344  170032  169775   256.4    0.00     0.0     0.0    0.00     0.0     0.0    0.00
 2019 116   274       0   20706  170374     344  170030  169772   257.6    0.00     0.0     0.0    0.00     0.0     0.0    0.00
 2019 117   275       0   20706  170373     344  170028  169769   258.9    0.00     0.0     0.0    0.00     0.0     0.0    0.00
 2019 118   276       0   20705  170371     345  170027  169767   260.1    0.00     0.0     0.0    0.00     0.0     0.0    0.00
 2019 119   277       0   20705  170370     345  170025  169764   261.3    0.00     0.0     0.0    0.00     0.0     0.0    0.00
 2019 120   278       0   20705  170369     345  170023  169761   262.6    0.00     0.0     0.0    0.00     0.0     0.0    0.00
 2019 121   279       0   20705  170367     346  170022  169758   263.8    0.00     0.0     0.0    0.00     0.0     0.0    0.00
 2019 122   280       0   20704  170366     346  170020  169755   265.1    0.00     0.0     0.0    0.00     0.0     0.0    0.00
 2019 123   281       0   20704  170365     346  170018  169752   266.3    0.00     0.0     0.0    0.00     0.0     0.0    0.00
 2019 124   282       0   20704  170363     346  170017  169749   267.6    0.00     0.0     0.0    0.00     0.0     0.0    0.00
 2019 125   283       0   20704  170361     346  170015  169746   268.8    0.00     0.0     0.0    0.00     0.0     0.0    0.00
 2019 126   284       0   20703  170359     347  170012  169742   270.0    0.00     0.0     0.0    0.00     0.0     0.0    0.00
 2019 127   285       0   20702  170357     347  170010  169739   271.2    0.00     0.0     0.0    0.00     0.0     0.0    0.00
 2019 128   286       0   20701  170355     348  170007  169735   272.3    0.00     0.0     0.0    0.00     0.0     0.0    0.00
 2019 129   287       0   20701  170352     348  170004  169731   273.5    0.00     0.0     0.0    0.00     0.0     0.0    0.00
 2019 130   288       0   20700  170349     348  170002  169727   274.6    0.00     0.0     0.0    0.00     0.0     0.0    0.00
 2019 131   289       0   20699  170346     348  169998  169722   275.8    0.00     0.0     0.0    0.00     0.0     0.0    0.00
 2019 132   290       0   20698  170343     348  169995  169718   277.0    0.00     0.0     0.0    0.00     0.0     0.0    0.00
 2019 133   291       0   20697  170340     348  169991  169713   278.1    0.00     0.0     0.0    0.00     0.0     0.0    0.00
 2019 134   292       0   20696  170336     349  169988  169708   279.2    0.00     0.0     0.0    0.00     0.0     0.0    0.00
 2019 135   293       0   20695  170333     349  169984  169704   280.4    0.00     0.0     0.0    0.00     0.0     0.0    0.00
 2019 136   294       0   20694  170330     349  169980  169699   281.5    0.00     0.0     0.0    0.00     0.0     0.0    0.00
 2019 137   295       0   20693  170326     349  169977  169694   282.6    0.00     0.0     0.0    0.00     0.0     0.0    0.00
 2019 138   296       0   20693  170323     350  169974  169690   283.6    0.00     0.0     0.0    0.00     0.0     0.0    0.00
 2019 139   297       0   20692  170320     350  169970  169685   284.7    0.00     0.0     0.0    0.00     0.0     0.0    0.00
 2019 140   298       0   20691  170316     350  169966  169680   285.8    0.00     0.0     0.0    0.00     0.0     0.0    0.00
 2019 141   299       0   20690  170313     350  169962  169675   287.0    0.00     0.0     0.0    0.00     0.0     0.0    0.00
 2019 142   300       0   20689  170309     351  169958  169670   288.1    0.00     0.0     0.0    0.00     0.0     0.0    0.00
 2019 143   301       0   20688  170305     351  169954  169665   289.2    0.00     0.0     0.0    0.00     0.0     0.0    0.00
 2019 144   302       0   20687  170301     352  169950  169660   290.4    0.00     0.0     0.0    0.00     0.0     0.0    0.00
 2019 145   303       0   20686  170298     352  169946  169654   291.5    0.00     0.0     0.0    0.00     0.0     0.0    0.00
 2019 146   304       0   20686  170293     352  169941  169649   292.7    0.00     0.0     0.0    0.00     0.0     0.0    0.00
 2019 147   305       0   20685  170288     352  169936  169643   293.8    0.00     0.0     0.0    0.00     0.0     0.0    0.00
 2019 148   306       0   20684  170284     352  169932  169637   294.9    0.00     0.0     0.0    0.00     0.0     0.0    0.00
 2019 149   307       0   20683  170280     352  169927  169631   296.0    0.00     0.0     0.0    0.00     0.0     0.0    0.00
 2019 150   308       0   20682  170275     353  169922  169625   297.1    0.00     0.0     0.0    0.00     0.0     0.0    0.00
 2019 151   309       0   20681  170270     353  169917  169619   298.2    0.00     0.0     0.0    0.00     0.0     0.0    0.00
 2019 152   310       0   20680  170266     353  169912  169613   299.3    0.00     0.0     0.0    0.00     0.0     0.0    0.00
 2019 153   311       0   20679  170260     353  169907  169607   300.4    0.00     0.0     0.0    0.00     0.0     0.0    0.00
 2019 154   312       0   20679  170255     353  169902  169601   301.5    0.00     0.0     0.0    0.00     0.0     0.0    0.00
 2019 155   313       0   20678  170250     353  169897  169595   302.6    0.00     0.0     0.0    0.00     0.0     0.0    0.00
 2019 156   314       0   20677  170245     353  169892  169588   303.8    0.00     0.0     0.0    0.00     0.0     0.0    0.00
 2019 157   315       0   20676  170240     353  169887  169582   304.9    0.00     0.0     0.0    0.00     0.0     0.0    0.00
 2019 158   316       0   20675  170235     354  169881  169575   306.0    0.00     0.0     0.0    0.00     0.0     0.0    0.00
 2019 159   317       0   20674  170229     354  169875  169568   307.1    0.00     0.0     0.0    0.00     0.0     0.0    0.00
 2019 160   318       0   20673  170224     354  169870  169562   308.1    0.00     0.0     0.0    0.00     0.0     0.0    0.00
 2019 161   319       0   20672  170218     354  169864  169555   309.2    0.00     0.0     0.0    0.00     0.0     0.0    0.00
 2019 162   320       0   20672  170212     354  169858  169548   310.3    0.00     0.0     0.0    0.00     0.0     0.0    0.00
 2019 163   321       0   20671  170206     354  169852  169540   311.4    0.00     0.0     0.0    0.00     0.0     0.0    0.00
 2019 164   322       0   20670  170200     354  169846  169533   312.5    0.00     0.0     0.0    0.00     0.0     0.0    0.00
 2019 165   323       0   20669  170194     354  169839  169526   313.6    0.00     0.0     0.0    0.00     0.0     0.0    0.00
 2019 166   324       0   20668  170187     354  169833  169518   314.7    0.00     0.0     0.0    0.00     0.0     0.0    0.00
 2019 167   325       0   20667  170181     354  169827  169511   315.8    0.00     0.0     0.0    0.00     0.0     0.0    0.00
 2019 168   326       0   20666  170175     355  169821  169504   316.9    0.00     0.0     0.0    0.00     0.0     0.0    0.00
 2019 169   327       0   20665  170169     355  169815  169497   318.0    0.00     0.0     0.0    0.00     0.0     0.0    0.00
 2019 170   328       0   20664  170163     355  169808  169489   319.1    0.00     0.0     0.0    0.00     0.0     0.0    0.00
 2019 171   329       0   20664  170157     355  169802  169482   320.3    0.00     0.0     0.0    0.00     0.0     0.0    0.00
 2019 172   330       0   20663  170151     356  169796  169474   321.4    0.00     0.0     0.0    0.00     0.0     0.0    0.00
 2019 173   331       0   20662  170145     356  169789  169467   322.5    0.00     0.0     0.0    0.00     0.0     0.0    0.00
 2019 174   332       0   20661  170139     356  169783  169460   323.6    0.00     0.0     0.0    0.00     0.0     0.0    0.00
 2019 175   333       0   20660  170133     356  169777  169452   324.7    0.00     0.0     0.0    0.00     0.0     0.0    0.00
 2019 176   334       0   20659  170127     356  169771  169445   325.7    0.00     0.0     0.0    0.00     0.0     0.0    0.00
 2019 177   335       0   20658  170121     356  169765  169438   326.7    0.00     0.0     0.0    0.00     0.0     0.0    0.00
 2019 178   336       0   20657  170115     356  169759  169431   327.7    0.00     0.0     0.0    0.00     0.0     0.0    0.00
 2019 179   337       0   20657  170110     357  169753  169424   328.7    0.00     0.0     0.0    0.00     0.0     0.0    0.00
 2019 180   338       0   20656  170104     357  169747  169417   329.7    0.00     0.0     0.0    0.00     0.0     0.0    0.00
 2019 181   339       0   20655  170098     357  169741  169410   330.7    0.00     0.0     0.0    0.00     0.0     0.0    0.00
 2019 182   340       0   20654  170092     357  169734  169403   331.7    0.00     0.0     0.0    0.00     0.0     0.0    0.00
 2019 183   341       0   20653  170085     357  169728  169395   332.8    0.00     0.0     0.0    0.00     0.0     0.0    0.00
 2019 184   342       0   20652  170079     358  169721  169387   333.8    0.00     0.0     0.0    0.00     0.0     0.0    0.00
 2019 185   343       0   20652  170072     358  169714  169379   334.9    0.00     0.0     0.0    0.00     0.0     0.0    0.00
 2019 186   344       0   20651  170065     358  169707  169372   335.9    0.00     0.0     0.0    0.00     0.0     0.0    0.00
 2019 187   345       0   20650  170059     358  169701  169364   336.9    0.00     0.0     0.0    0.00     0.0     0.0    0.00
 2019 188   346       0   20649  170052     358  169694  169356   337.9    0.00     0.0     0.0    0.00     0.0     0.0    0.00
 2019 189   347       0   20648  170045     358  169687  169348   338.9    0.00     0.0     0.0    0.00     0.0     0.0    0.00
 2019 190   348       0   20647  170039     358  169680  169341   339.9    0.00     0.0     0.0    0.00     0.0     0.0    0.00
 2019 191   349       0   20646  170032     359  169674  169333   340.9    0.00     0.0     0.0    0.00     0.0     0.0    0.00
 2019 192   350       0   20646  170026     359  169667  169325   341.9    0.00     0.0     0.0    0.00     0.0     0.0    0.00
 2019 193   351       0   20645  170020     359  169661  169318   342.8    0.00     0.0     0.0    0.00     0.0     0.0    0.00
 2019 194   352       0   20644  170013     359  169654  169311   343.7    0.00     0.0     0.0    0.00     0.0     0.0    0.00
 2019 195   353       0   20643  170007     359  169648  169303   344.6    0.00     0.0     0.0    0.00     0.0     0.0    0.00
 2019 196   354       0   20642  170000     359  169641  169296   345.5    0.00     0.0     0.0    0.00     0.0     0.0    0.00
 2019 197   355       0   20642  169994     359  169635  169288   346.5    0.00     0.0     0.0    0.00     0.0     0.0    0.00
 2019 198   356       0   20641  169987     359  169628  169281   347.4    0.00     0.0     0.0    0.00     0.0     0.0    0.00
 2019 199   357       0   20640  169980     359  169621  169273   348.4    0.00     0.0     0.0    0.00     0.0     0.0    0.00
 2019 200   358       0   20639  169974     359  169615  169265   349.4    0.00     0.0     0.0    0.00     0.0     0.0    0.00
 2019 201   359       0   20638  169967     359  169608  169257   350.4    0.00     0.0     0.0    0.00     0.0     0.0    0.00
 2019 202   360       0   20637  169960     359  169601  169250   351.4    0.00     0.0     0.0    0.00     0.0     0.0    0.00
 2019 203   361       0   20637  169954     359  169594  169242   352.4    0.00     0.0     0.0    0.00     0.0     0.0    0.00
 2019 204   362       0   20636  169947     359  169588  169235   353.3    0.00     0.0     0.0    0.00     0.0     0.0    0.00
 2019 205   363       0   20635  169941     360  169581  169227   354.3    0.00     0.0     0.0    0.00     0.0     0.0    0.00
 2019 206   364       0   20634  169934     360  169574  169219   355.2    0.00     0.0     0.0    0.00     0.0     0.0    0.00
 2019 207   365       0   20633  169928     360  169568  169212   356.2    0.00     0.0     0.0    0.00     0.0     0.0    0.00
 2019 208   366       0   20632  169921     360  169561  169204   357.2    0.00     0.0     0.0    0.00     0.0     0.0    0.00
