*SOIL WATER DAILY OUTPUT FILE

*DSSAT Cropping System Model Ver. 4.8.0.019 -develop  APR 08, 2023 12:34:37

*RUN   1        : IITA-TMS-IBA000070        CSYCA048 UYAB1901    1
 MODEL          : CSYCA048 - Cassava
 EXPERIMENT     : UYAB1901 CS UYT_GXE
 DATA PATH      :
 TREATMENT  1   : IITA-TMS-IBA000070        CSYCA048
  
!                                                                                                 Soil water content (mm3/mm3) by soil depth (cm):
!                                                                                                 0-5    5-15   15-30   30-45   45-60   60-90  90-120 120-150 150-180 180-200
@YEAR DOY   DAS  SWTD  SWXD   ROFC   DRNC   PREC  IR#C  IRRC  DTWT    MWTD  TDFD  TDFC   ROFD    SW1D    SW2D    SW3D    SW4D    SW5D    SW6D    SW7D    SW8D    SW9D    SW10
 2019 167     0   534   193      0      0      0     0     0     0    0.00   0.0   0.0   0.00   0.230   0.243   0.262   0.279   0.279   0.277   0.268   0.264   0.264   0.264
 2019 168     1   528   188      0      0      2     0     0   100    0.00   0.0   0.0   0.00   0.223   0.237   0.259   0.275   0.276   0.274   0.266   0.262   0.263   0.263
 2019 169     2   528   187      0      0      2     0     0   200    0.00   0.0   0.0   0.00   0.216   0.236   0.258   0.275   0.276   0.274   0.266   0.262   0.263   0.263
 2019 170     3   526   185      0      0      6     0     0   200    0.00   0.0   0.0   0.00   0.240   0.238   0.255   0.271   0.273   0.272   0.264   0.261   0.261   0.262
 2019 171     4   523   183      0      0      8     0     0   200    0.00   0.0   0.0   0.00   0.245   0.240   0.254   0.268   0.270   0.270   0.263   0.260   0.260   0.261
 2019 172     5   528   188      0      0     18     0     0   200    0.00   0.0   0.0   0.00   0.299   0.264   0.264   0.271   0.268   0.269   0.262   0.259   0.259   0.260
 2019 173     6   533   192      0      0     25     0     0   200    0.00   0.0   0.0   0.00   0.304   0.280   0.274   0.281   0.270   0.268   0.261   0.258   0.259   0.259
 2019 174     7   529   189      0      0     28     0     0   200    0.00   0.0   0.0   0.00   0.276   0.267   0.274   0.285   0.277   0.266   0.259   0.257   0.258   0.258
 2019 175     8   537   196      0      0     38     0     0   200    0.00   0.0   0.0   0.00   0.306   0.291   0.283   0.292   0.284   0.268   0.259   0.256   0.257   0.258
 2019 176     9   537   197      0      0     42     0     0   200    0.00   0.0   0.0   0.00   0.299   0.280   0.283   0.295   0.289   0.272   0.258   0.255   0.256   0.257
 2019 177    10   546   205      0      0     54     0     0   200    0.00   0.0   0.0   0.13   0.306   0.309   0.294   0.303   0.295   0.278   0.259   0.255   0.256   0.257
 2019 178    11   548   207      0      0     60     0     0   200    0.00   0.0   0.0   0.00   0.301   0.297   0.295   0.306   0.300   0.282   0.264   0.254   0.255   0.256
 2019 179    12   549   209      0      0     66     0     0   200    0.00   0.0   0.0   0.00   0.297   0.288   0.292   0.307   0.303   0.284   0.269   0.256   0.254   0.255
 2019 180    13   545   205      0      0     67     0     0   200    0.00   0.0   0.0   0.00   0.262   0.269   0.284   0.303   0.302   0.285   0.272   0.260   0.253   0.254
 2019 181    14   542   201      0      0     69     0     0   200    0.00   0.0   0.0   0.00   0.248   0.256   0.275   0.296   0.298   0.284   0.273   0.264   0.254   0.253
 2019 182    15   542   202      0      0     74     0     0   200    0.00   0.0   0.0   0.00   0.275   0.256   0.271   0.291   0.294   0.283   0.273   0.267   0.257   0.253
 2019 183    16   540   200      0      0     76     0     0   200    0.00   0.0   0.0   0.00   0.259   0.253   0.269   0.288   0.290   0.282   0.273   0.267   0.260   0.252
 2019 184    17   539   198      0      0     79     0     0   200    0.00   0.0   0.0   0.00   0.263   0.252   0.266   0.285   0.286   0.280   0.271   0.267   0.263   0.251
 2019 185    18   543   203      0      0     89     0     0   200    0.00   0.0   0.0   0.00   0.297   0.274   0.273   0.286   0.286   0.279   0.270   0.266   0.265   0.250
 2019 186    19   542   201      0      0     91     0     0   200    0.00   0.0   0.0   0.00   0.277   0.266   0.273   0.288   0.286   0.279   0.270   0.265   0.265   0.253
 2019 187    20   536   196      0      0     91     0     0   200    0.00   0.0   0.0   0.00   0.235   0.251   0.268   0.285   0.285   0.278   0.269   0.265   0.266   0.252
 2019 188    21   532   191      0      0     92     0     0   200    0.00   0.0   0.0   0.00   0.222   0.241   0.262   0.282   0.282   0.277   0.269   0.263   0.265   0.251
 2019 189    22   534   193      0      0     96     0     0   200    0.00   0.0   0.0   0.00   0.262   0.248   0.263   0.280   0.281   0.278   0.269   0.263   0.264   0.250
 2019 190    23   533   193      0      0    100     0     0   200    0.00   0.0   0.0   0.00   0.271   0.251   0.263   0.280   0.280   0.278   0.267   0.262   0.264   0.250
 2019 191    24   529   189      0      0    101     0     0   200    0.00   0.0   0.0   0.00   0.245   0.246   0.261   0.278   0.278   0.277   0.266   0.261   0.263   0.249
 2019 192    25   543   202      0      0    118     0     0   200    0.00   0.0   0.0   0.31   0.305   0.304   0.280   0.288   0.283   0.278   0.265   0.260   0.262   0.249
 2019 193    26   542   202      0      0    121     0     0   200    0.00   0.0   0.0   0.00   0.291   0.282   0.282   0.293   0.287   0.279   0.267   0.259   0.261   0.248
 2019 194    27   539   198      0      0    124     0     0   200    0.00   0.0   0.0   0.00   0.268   0.265   0.277   0.293   0.290   0.279   0.268   0.260   0.260   0.247
 2019 195    28   552   212      1      0    143     0     0   200    0.00   0.0   0.0   1.01   0.296   0.308   0.300   0.305   0.297   0.282   0.270   0.263   0.260   0.246
 2019 196    29   550   209      1      0    146     0     0   200    0.00   0.0   0.0   0.00   0.274   0.279   0.290   0.306   0.301   0.284   0.272   0.265   0.261   0.246
 2019 197    30   548   208      1      0    149     0     0   200    0.00   0.0   0.0   0.00   0.269   0.265   0.281   0.301   0.301   0.285   0.274   0.267   0.264   0.245
 2019 198    31   544   203      1      0    150     0     0   200    0.00   0.0   0.0   0.00   0.242   0.251   0.271   0.294   0.297   0.284   0.274   0.268   0.266   0.248
 2019 199    32   546   206      1      0    156     0     0   200    0.00   0.0   0.0   0.00   0.289   0.256   0.269   0.290   0.293   0.284   0.274   0.269   0.267   0.253
 2019 200    33   555   214      1      0    166     0     0   200    0.00   0.0   0.0   0.00   0.310   0.288   0.280   0.293   0.293   0.283   0.274   0.269   0.268   0.259
 2019 201    34   553   213      1      0    169     0     0   200    0.00   0.0   0.0   0.00   0.289   0.273   0.278   0.294   0.293   0.283   0.274   0.269   0.268   0.266
 2019 202    35   549   209      1      1    170     0     0   199    0.00   0.0   0.0   0.00   0.261   0.260   0.273   0.292   0.292   0.282   0.273   0.269   0.268   0.268
 2019 203    36   552   211      1      2    178     0     0   199    0.00   0.0   0.0   0.00   0.303   0.267   0.274   0.291   0.291   0.282   0.273   0.269   0.268   0.269
 2019 204    37   549   209      1      3    181     0     0   199    0.00   0.0   0.0   0.00   0.290   0.263   0.272   0.289   0.290   0.282   0.272   0.268   0.268   0.270
 2019 205    38   547   206      1      5    184     0     0   199    0.00   0.0   0.0   0.00   0.278   0.258   0.269   0.287   0.289   0.281   0.272   0.268   0.268   0.269
 2019 206    39   554   213      1      6    194     0     0   199    0.00   0.0   0.0   0.00   0.313   0.286   0.279   0.292   0.290   0.281   0.272   0.268   0.268   0.269
 2019 207    40   556   215      1      7    201     0     0   199    0.00   0.0   0.0   0.00   0.299   0.292   0.284   0.296   0.293   0.282   0.272   0.268   0.267   0.269
 2019 208    41   556   216      1      8    206     0     0   199    0.00   0.0   0.0   0.00   0.305   0.280   0.284   0.298   0.295   0.283   0.273   0.268   0.268   0.269
 2019 209    42   565   224      2      9    220     0     0   199    0.00   0.0   0.0   0.44   0.302   0.310   0.299   0.307   0.301   0.285   0.274   0.269   0.268   0.270
 2019 210    43   564   223      2     10    224     0     0   199    0.00   0.0   0.0   0.00   0.297   0.286   0.293   0.308   0.304   0.287   0.276   0.270   0.269   0.270
 2019 211    44   561   221      2     12    226     0     0   199    0.00   0.0   0.0   0.00   0.279   0.271   0.285   0.304   0.304   0.288   0.277   0.271   0.270   0.272
 2019 212    45   563   222      2     14    234     0     0   199    0.00   0.0   0.0   0.00   0.300   0.278   0.282   0.301   0.302   0.288   0.277   0.272   0.271   0.273
 2019 213    46   564   223      2     16    241     0     0   198    0.00   0.0   0.0   0.00   0.299   0.285   0.283   0.300   0.301   0.287   0.278   0.273   0.271   0.274
 2019 214    47   570   230      2     18    253     0     0   198    0.00   0.0   0.0   0.22   0.305   0.311   0.295   0.306   0.303   0.288   0.278   0.273   0.272   0.275
 2019 215    48   572   232      2     21    262     0     0   198    0.00   0.0   0.0   0.04   0.302   0.308   0.298   0.310   0.306   0.289   0.279   0.274   0.273   0.276
 2019 216    49   571   230      2     23    267     0     0   198    0.00   0.0   0.0   0.00   0.303   0.289   0.293   0.309   0.307   0.289   0.279   0.274   0.273   0.277
 2019 217    50   600   260     16     27    316     0     0   198    0.00   0.0   0.0  13.60   0.309   0.313   0.326   0.338   0.338   0.311   0.291   0.280   0.277   0.280
 2019 218    51   598   258     16     31    320     0     0   197    0.00   0.0   0.0   0.00   0.307   0.293   0.309   0.331   0.335   0.308   0.294   0.285   0.281   0.284
 2019 219    52   602   262     16     36    331     0     0   196    0.00   0.0   0.0   0.17   0.312   0.314   0.310   0.329   0.332   0.305   0.295   0.288   0.284   0.289
 2019 220    53   629   289     33     43    385     0     0   195    0.00   0.0   0.0  17.23   0.306   0.311   0.325   0.337   0.338   0.337   0.316   0.300   0.292   0.298
 2019 221    54   622   282     33     51    390     0     0   194    0.00   0.0   0.0   0.00   0.303   0.293   0.307   0.330   0.334   0.320   0.313   0.304   0.298   0.306
 2019 222    55   610   270     33     61    392     0     0   193    0.00   0.0   0.0   0.00   0.275   0.273   0.292   0.319   0.326   0.310   0.307   0.303   0.300   0.312
 2019 223    56   598   258     33     71    393     0     0   192    0.00   0.0   0.0   0.00   0.260   0.261   0.281   0.308   0.316   0.303   0.300   0.299   0.300   0.315
 2019 224    57   588   248     33     81    396     0     0   192    0.00   0.0   0.0   0.00   0.265   0.256   0.274   0.299   0.307   0.297   0.294   0.294   0.297   0.314
 2019 225    58   575   235     33     91    397     0     0   193    0.00   0.0   0.0   0.00   0.245   0.247   0.266   0.290   0.298   0.291   0.288   0.289   0.293   0.310
 2019 226    59   564   224     33     99    399     0     0   194    0.00   0.0   0.0   0.00   0.241   0.243   0.261   0.283   0.290   0.286   0.282   0.283   0.288   0.305
 2019 227    60   559   219     33    106    403     0     0   195    0.00   0.0   0.0   0.00   0.279   0.250   0.262   0.280   0.285   0.283   0.278   0.278   0.283   0.298
 2019 228    61   555   215     33    112    408     0     0   196    0.00   0.0   0.0   0.00   0.295   0.256   0.264   0.280   0.282   0.281   0.275   0.274   0.278   0.292
 2019 229    62   557   217     33    116    418     0     0   197    0.00   0.0   0.0   0.02   0.302   0.288   0.275   0.286   0.283   0.280   0.272   0.271   0.275   0.286
 2019 230    63   554   214     33    119    422     0     0   197    0.00   0.0   0.0   0.00   0.302   0.276   0.277   0.289   0.286   0.280   0.271   0.269   0.272   0.281
 2019 231    64   565   224     34    122    438     0     0   198    0.00   0.0   0.0   0.64   0.310   0.313   0.301   0.303   0.294   0.282   0.272   0.269   0.270   0.277
 2019 232    65   570   229     34    124    448     0     0   198    0.00   0.0   0.0   0.20   0.305   0.310   0.308   0.314   0.303   0.286   0.274   0.269   0.269   0.274
 2019 233    66   582   242     36    126    467     0     0   198    0.00   0.0   0.0   1.59   0.308   0.312   0.325   0.337   0.320   0.292   0.278   0.272   0.270   0.274
 2019 234    67   593   253     37    129    487     0     0   198    0.00   0.0   0.0   1.86   0.301   0.308   0.322   0.335   0.337   0.306   0.287   0.277   0.274   0.276
 2019 235    68   609   269     42    132    515     0     0   197    0.00   0.0   0.0   4.10   0.303   0.309   0.323   0.336   0.337   0.323   0.301   0.287   0.280   0.282
 2019 236    69   603   263     42    138    517     0     0   196    0.00   0.0   0.0   0.00   0.286   0.284   0.304   0.328   0.332   0.313   0.302   0.292   0.286   0.290
 2019 237    70   594   254     42    144    518     0     0   195    0.00   0.0   0.0   0.00   0.258   0.264   0.287   0.315   0.322   0.306   0.299   0.294   0.290   0.296
 2019 238    71   584   243     42    151    519     0     0   195    0.00   0.0   0.0   0.00   0.243   0.251   0.274   0.302   0.311   0.300   0.295   0.292   0.291   0.300
 2019 239    72   606   266     48    159    558     0     0   194    0.00   0.0   0.0   6.62   0.311   0.313   0.326   0.334   0.322   0.299   0.292   0.290   0.290   0.302
 2019 240    73   603   263     48    167    567     0     0   194    0.00   0.0   0.0   0.11   0.302   0.308   0.316   0.332   0.326   0.300   0.291   0.289   0.289   0.302
 2019 241    74   595   255     48    174    570     0     0   194    0.00   0.0   0.0   0.00   0.294   0.284   0.299   0.323   0.324   0.300   0.291   0.288   0.288   0.301
 2019 242    75   587   246     48    181    574     0     0   195    0.00   0.0   0.0   0.00   0.293   0.270   0.285   0.312   0.316   0.298   0.290   0.286   0.287   0.300
 2019 243    76   580   240     48    188    578     0     0   195    0.00   0.0   0.0   0.00   0.291   0.264   0.278   0.303   0.308   0.295   0.288   0.285   0.286   0.298
 2019 244    77   574   234     48    195    583     0     0   195    0.00   0.0   0.0   0.00   0.303   0.264   0.274   0.296   0.301   0.292   0.285   0.283   0.284   0.296
 2019 245    78   565   225     48    201    583     0     0   195    0.00   0.0   0.0   0.00   0.263   0.255   0.269   0.290   0.294   0.288   0.282   0.280   0.282   0.294
 2019 246    79   559   219     48    206    587     0     0   196    0.00   0.0   0.0   0.00   0.274   0.253   0.265   0.285   0.288   0.285   0.279   0.277   0.280   0.290
 2019 247    80   559   219     48    211    595     0     0   197    0.00   0.0   0.0   0.00   0.304   0.272   0.270   0.285   0.285   0.283   0.276   0.275   0.277   0.287
 2019 248    81   555   215     48    214    599     0     0   197    0.00   0.0   0.0   0.00   0.301   0.267   0.271   0.286   0.284   0.282   0.274   0.272   0.275   0.283
 2019 249    82   550   210     48    218    602     0     0   198    0.00   0.0   0.0   0.00   0.283   0.259   0.268   0.284   0.283   0.281   0.273   0.270   0.272   0.280
 2019 250    83   546   206     48    220    605     0     0   198    0.00   0.0   0.0   0.00   0.281   0.255   0.265   0.282   0.281   0.280   0.271   0.269   0.270   0.277
 2019 251    84   549   208     48    222    614     0     0   198    0.00   0.0   0.0   0.00   0.305   0.274   0.270   0.284   0.281   0.279   0.271   0.268   0.269   0.274
 2019 252    85   569   229     53    224    645     0     0   199    0.00   0.0   0.0   5.01   0.304   0.309   0.322   0.319   0.299   0.283   0.272   0.268   0.268   0.272
 2019 253    86   568   227     53    226    649     0     0   199    0.00   0.0   0.0   0.00   0.301   0.286   0.303   0.319   0.308   0.288   0.275   0.270   0.269   0.272
 2019 254    87   566   225     53    227    653     0     0   199    0.00   0.0   0.0   0.00   0.301   0.273   0.289   0.311   0.308   0.290   0.278   0.272   0.270   0.272
 2019 255    88   560   219     53    229    653     0     0   198    0.00   0.0   0.0   0.00   0.260   0.257   0.276   0.301   0.302   0.290   0.279   0.273   0.272   0.274
 2019 256    89   559   219     53    232    660     0     0   198    0.00   0.0   0.0   0.00   0.301   0.259   0.270   0.293   0.296   0.288   0.279   0.274   0.273   0.275
 2019 257    90   587   247     65    234    706     0     0   198    0.00   0.0   0.0  11.26   0.305   0.309   0.322   0.335   0.324   0.294   0.282   0.276   0.274   0.277
 2019 258    91   605   265     70    238    737     0     0   197    0.00   0.0   0.0   5.66   0.305   0.309   0.322   0.335   0.336   0.320   0.296   0.284   0.279   0.282
 2019 259    92   603   262     70    243    742     0     0   196    0.00   0.0   0.0   0.00   0.308   0.292   0.306   0.328   0.331   0.312   0.299   0.290   0.284   0.288
 2019 260    93   596   256     70    249    746     0     0   195    0.00   0.0   0.0   0.00   0.303   0.276   0.291   0.317   0.322   0.306   0.298   0.292   0.288   0.294
 2019 261    94   593   253     70    256    754     0     0   195    0.00   0.0   0.0   0.00   0.306   0.287   0.288   0.310   0.314   0.301   0.295   0.291   0.289   0.298
 2019 262    95   591   251     70    263    763     0     0   195    0.00   0.0   0.0   0.03   0.305   0.300   0.290   0.307   0.309   0.297   0.291   0.289   0.289   0.300
 2019 263    96   595   254     71    270    779     0     0   195    0.00   0.0   0.0   0.93   0.303   0.307   0.312   0.317   0.311   0.296   0.289   0.287   0.288   0.300
 2019 264    97   588   248     71    277    784     0     0   195    0.00   0.0   0.0   0.00   0.304   0.286   0.297   0.314   0.311   0.295   0.287   0.285   0.286   0.299
 2019 265    98   580   240     71    284    788     0     0   195    0.00   0.0   0.0   0.00   0.299   0.271   0.284   0.306   0.307   0.294   0.286   0.283   0.285   0.297
 2019 266    99   571   230     71    290    789     0     0   195    0.00   0.0   0.0   0.00   0.264   0.258   0.274   0.297   0.300   0.291   0.284   0.282   0.283   0.295
 2019 267   100   561   221     71    296    790     0     0   196    0.00   0.0   0.0   0.00   0.249   0.247   0.265   0.288   0.292   0.288   0.281   0.279   0.281   0.292
 2019 268   101   555   215     71    301    794     0     0   196    0.00   0.0   0.0   0.00   0.265   0.246   0.260   0.281   0.285   0.285   0.279   0.277   0.279   0.289
 2019 269   102   555   215     71    305    802     0     0   197    0.00   0.0   0.0   0.00   0.307   0.264   0.265   0.280   0.281   0.282   0.276   0.274   0.276   0.286
 2019 270   103   568   227     73    309    824     0     0   197    0.00   0.0   0.0   1.84   0.305   0.309   0.304   0.300   0.289   0.283   0.275   0.272   0.274   0.283
 2019 271   104   560   220     73    312    825     0     0   198    0.00   0.0   0.0   0.00   0.271   0.276   0.289   0.301   0.293   0.284   0.275   0.271   0.273   0.280
 2019 272   105   558   217     73    315    829     0     0   198    0.00   0.0   0.0   0.00   0.282   0.265   0.279   0.298   0.294   0.285   0.275   0.271   0.272   0.278
 2019 273   106   557   217     73    317    835     0     0   198    0.00   0.0   0.0   0.00   0.305   0.267   0.275   0.294   0.292   0.285   0.275   0.271   0.271   0.277
 2019 274   107   559   218     73    320    842     0     0   198    0.00   0.0   0.0   0.00   0.308   0.280   0.278   0.293   0.291   0.285   0.275   0.271   0.271   0.276
 2019 275   108   561   221     73    322    850     0     0   198    0.00   0.0   0.0   0.00   0.308   0.292   0.283   0.296   0.292   0.285   0.275   0.271   0.271   0.275
 2019 276   109   556   216     73    324    851     0     0   198    0.00   0.0   0.0   0.00   0.272   0.270   0.278   0.294   0.292   0.285   0.275   0.271   0.271   0.275
 2019 277   110   551   211     73    327    852     0     0   198    0.00   0.0   0.0   0.00   0.260   0.256   0.270   0.289   0.288   0.284   0.275   0.271   0.271   0.275
 2019 278   111   546   205     73    329    853     0     0   198    0.00   0.0   0.0   0.00   0.241   0.246   0.263   0.284   0.284   0.282   0.274   0.271   0.271   0.274
 2019 279   112   551   211     73    331    864     0     0   198    0.00   0.0   0.0   0.00   0.307   0.275   0.270   0.284   0.283   0.281   0.273   0.270   0.270   0.274
 2019 280   113   560   220     74    333    879     0     0   199    0.00   0.0   0.0   0.52   0.307   0.310   0.292   0.295   0.287   0.282   0.273   0.269   0.270   0.273
 2019 281   114   561   221     74    334    885     0     0   199    0.00   0.0   0.0   0.00   0.309   0.294   0.291   0.301   0.293   0.283   0.274   0.269   0.270   0.273
 2019 282   115   557   217     74    336    887     0     0   199    0.00   0.0   0.0   0.00   0.286   0.274   0.283   0.299   0.294   0.285   0.275   0.270   0.270   0.273
 2019 283   116   563   223     74    338    899     0     0   199    0.00   0.0   0.0   0.14   0.305   0.302   0.288   0.301   0.295   0.286   0.276   0.271   0.270   0.273
 2019 284   117   577   237     76    340    922     0     0   199    0.00   0.0   0.0   2.45   0.304   0.307   0.321   0.324   0.308   0.289   0.278   0.272   0.271   0.274
 2019 285   118   572   232     76    342    923     0     0   198    0.00   0.0   0.0   0.00   0.277   0.279   0.299   0.319   0.311   0.292   0.281   0.274   0.273   0.275
 2019 286   119   569   228     76    345    927     0     0   198    0.00   0.0   0.0   0.00   0.284   0.265   0.284   0.308   0.308   0.293   0.282   0.276   0.274   0.277
 2019 287   120   565   224     76    348    931     0     0   198    0.00   0.0   0.0   0.00   0.290   0.259   0.273   0.298   0.300   0.291   0.282   0.277   0.276   0.279
 2019 288   121   566   226     76    351    941     0     0   197    0.00   0.0   0.0   0.00   0.305   0.282   0.277   0.294   0.295   0.289   0.281   0.277   0.276   0.281
 2019 289   122   579   238     77    355    960     0     0   197    0.00   0.0   0.0   1.31   0.312   0.313   0.311   0.310   0.302   0.289   0.281   0.277   0.276   0.282
 2019 290   123   582   241     78    359    971     0     0   197    0.00   0.0   0.0   0.32   0.304   0.307   0.314   0.319   0.309   0.291   0.281   0.277   0.277   0.282
 2019 291   124   577   236     78    362    974     0     0   197    0.00   0.0   0.0   0.00   0.294   0.282   0.297   0.315   0.310   0.293   0.283   0.278   0.277   0.283
 2019 292   125   572   232     78    366    977     0     0   197    0.00   0.0   0.0   0.00   0.288   0.269   0.285   0.308   0.307   0.293   0.283   0.278   0.278   0.284
 2019 293   126   567   226     78    370    980     0     0   197    0.00   0.0   0.0   0.00   0.278   0.259   0.275   0.298   0.300   0.291   0.282   0.278   0.278   0.284
 2019 294   127   559   219     78    375    980     0     0   197    0.00   0.0   0.0   0.00   0.250   0.250   0.267   0.290   0.294   0.288   0.281   0.278   0.278   0.284
 2019 295   128   551   211     78    378    981     0     0   197    0.00   0.0   0.0   0.00   0.232   0.240   0.259   0.282   0.285   0.285   0.278   0.276   0.277   0.284
 2019 296   129   551   211     78    382    989     0     0   197    0.00   0.0   0.0   0.00   0.305   0.252   0.259   0.278   0.279   0.282   0.276   0.274   0.275   0.282
 2019 297   130   565   224     79    385   1008     0     0   198    0.00   0.0   0.0   1.20   0.312   0.313   0.295   0.294   0.286   0.282   0.274   0.272   0.274   0.280
 2019 298   131   576   235     81    388   1029     0     0   198    0.00   0.0   0.0   2.05   0.305   0.308   0.321   0.324   0.303   0.286   0.276   0.272   0.273   0.279
 2019 299   132   582   241     81    391   1041     0     0   198    0.00   0.0   0.0   0.36   0.308   0.310   0.321   0.330   0.315   0.291   0.279   0.273   0.273   0.278
 2019 300   133   614   273    102    395   1100     0     0   197    0.00   0.0   0.0  20.16   0.309   0.310   0.323   0.336   0.336   0.336   0.303   0.286   0.279   0.283
 2019 301   134   607   266    102    400   1102     0     0   196    0.00   0.0   0.0   0.00   0.283   0.282   0.302   0.326   0.329   0.320   0.307   0.294   0.287   0.290
 2019 302   135   598   258    102    407   1104     0     0   195    0.00   0.0   0.0   0.00   0.273   0.266   0.286   0.314   0.320   0.309   0.304   0.297   0.292   0.298
 2019 303   136   586   246    102    415   1105     0     0   194    0.00   0.0   0.0   0.00   0.246   0.250   0.272   0.300   0.307   0.301   0.298   0.295   0.294   0.303
 2019 304   137   574   233    102    423   1105     0     0   194    0.00   0.0   0.0   0.00   0.229   0.240   0.261   0.288   0.295   0.294   0.291   0.291   0.292   0.305
 2019 305   138   561   220    102    431   1105     0     0   194    0.00   0.0   0.0   0.00   0.218   0.228   0.252   0.277   0.283   0.288   0.285   0.286   0.289   0.303
 2019 306   139   554   214    102    438   1110     0     0   195    0.00   0.0   0.0   0.00   0.263   0.236   0.246   0.272   0.276   0.283   0.279   0.281   0.285   0.299
 2019 307   140   545   204    102    444   1111     0     0   195    0.00   0.0   0.0   0.00   0.246   0.236   0.240   0.267   0.272   0.280   0.275   0.276   0.280   0.294
 2019 308   141   531   190    102    452   1111     0     0   198    0.00   0.0   0.0   0.00   0.222   0.228   0.231   0.260   0.265   0.279   0.271   0.270   0.272   0.279
 2019 309   142   521   181    102    456   1111     0     0   199    0.00   0.0   0.0   0.00   0.205   0.214   0.225   0.253   0.258   0.279   0.269   0.267   0.268   0.271
 2019 310   143   514   174    102    458   1111     0     0   199    0.00   0.0   0.0   0.00   0.184   0.203   0.220   0.246   0.249   0.279   0.269   0.266   0.266   0.267
 2019 311   144   509   168    102    458   1111     0     0   200    0.00   0.0   0.0   0.00   0.176   0.194   0.214   0.238   0.240   0.278   0.269   0.266   0.266   0.266
 2019 312   145   506   165    102    458   1111     0     0   200    0.00   0.0   0.0   0.00   0.170   0.190   0.210   0.234   0.235   0.278   0.269   0.266   0.265   0.265
 2019 313   146   503   163    102    458   1111     0     0   200    0.00   0.0   0.0   0.00   0.166   0.186   0.207   0.230   0.232   0.278   0.268   0.266   0.265   0.265
 2019 314   147   502   161    102    458   1111     0     0   200    0.00   0.0   0.0   0.00   0.167   0.184   0.205   0.228   0.229   0.277   0.268   0.266   0.265   0.265
 2019 315   148   501   160    102    458   1112     0     0   200    0.00   0.0   0.0   0.00   0.176   0.181   0.203   0.226   0.227   0.277   0.268   0.265   0.265   0.265
 2019 316   149   513   173    102    458   1126     0     0   200    0.00   0.0   0.0   0.00   0.312   0.245   0.204   0.224   0.225   0.277   0.268   0.265   0.265   0.265
 2019 317   150   525   185    102    458   1142     0     0   200    0.00   0.0   0.0   0.58   0.294   0.299   0.257   0.223   0.224   0.277   0.268   0.265   0.265   0.265
 2019 318   151   522   182    102    458   1143     0     0   200    0.00   0.0   0.0   0.00   0.259   0.267   0.261   0.232   0.223   0.276   0.267   0.265   0.264   0.265
 2019 319   152   517   177    102    458   1143     0     0   200    0.00   0.0   0.0   0.00   0.229   0.244   0.255   0.235   0.223   0.276   0.267   0.265   0.264   0.264
 2019 320   153   512   172    102    458   1143     0     0   200    0.00   0.0   0.0   0.00   0.210   0.227   0.242   0.233   0.222   0.276   0.267   0.265   0.264   0.264
 2019 321   154   507   166    102    458   1143     0     0   200    0.00   0.0   0.0   0.00   0.180   0.211   0.229   0.232   0.221   0.276   0.267   0.265   0.264   0.264
 2019 322   155   502   162    102    458   1143     0     0   200    0.00   0.0   0.0   0.00   0.164   0.195   0.218   0.229   0.220   0.276   0.267   0.265   0.264   0.264
 2019 323   156   500   159    102    458   1143     0     0   200    0.00   0.0   0.0   0.00   0.152   0.190   0.213   0.227   0.219   0.276   0.267   0.265   0.264   0.264
 2019 324   157   498   158    102    458   1143     0     0   200    0.00   0.0   0.0   0.00   0.144   0.187   0.210   0.225   0.218   0.276   0.267   0.265   0.264   0.264
 2019 325   158   497   156    102    458   1143     0     0   200    0.00   0.0   0.0   0.00   0.138   0.184   0.207   0.224   0.217   0.276   0.267   0.265   0.264   0.264
 2019 326   159   495   155    102    458   1143     0     0   200    0.00   0.0   0.0   0.00   0.130   0.182   0.205   0.222   0.216   0.276   0.267   0.265   0.264   0.264
 2019 327   160   494   154    102    458   1143     0     0   200    0.00   0.0   0.0   0.00   0.122   0.179   0.203   0.221   0.215   0.276   0.267   0.265   0.264   0.264
 2019 328   161   493   153    102    458   1143     0     0   200    0.00   0.0   0.0   0.00   0.115   0.177   0.201   0.219   0.215   0.276   0.267   0.265   0.264   0.264
 2019 329   162   492   152    102    458   1143     0     0   200    0.00   0.0   0.0   0.00   0.108   0.176   0.199   0.218   0.214   0.276   0.267   0.265   0.264   0.264
 2019 330   163   491   151    102    458   1143     0     0   200    0.00   0.0   0.0   0.00   0.102   0.174   0.198   0.217   0.213   0.276   0.267   0.265   0.264   0.264
 2019 331   164   490   150    102    458   1143     0     0   200    0.00   0.0   0.0   0.00   0.097   0.172   0.197   0.216   0.212   0.276   0.267   0.265   0.264   0.264
 2019 332   165   489   149    102    458   1143     0     0   200    0.00   0.0   0.0   0.00   0.092   0.171   0.195   0.215   0.211   0.276   0.267   0.265   0.264   0.264
 2019 333   166   488   148    102    458   1143     0     0   200    0.00   0.0   0.0   0.00   0.087   0.169   0.194   0.214   0.211   0.276   0.267   0.265   0.264   0.264
 2019 334   167   487   147    102    458   1143     0     0   200    0.01   0.0   0.0   0.00   0.083   0.168   0.193   0.213   0.210   0.276   0.267   0.265   0.264   0.264
 2019 335   168   487   146    102    458   1143     0     0   200    0.01   0.0   0.0   0.00   0.079   0.166   0.192   0.212   0.209   0.276   0.267   0.265   0.264   0.264
 2019 336   169   486   145    102    458   1143     0     0   200    0.01   0.0   0.0   0.00   0.076   0.165   0.190   0.211   0.208   0.275   0.267   0.265   0.264   0.264
 2019 337   170   485   145    102    458   1143     0     0   200    0.01   0.0   0.0   0.00   0.073   0.164   0.189   0.210   0.208   0.275   0.267   0.265   0.264   0.264
 2019 338   171   484   144    102    458   1143     0     0   200    0.01   0.0   0.0   0.00   0.070   0.163   0.188   0.209   0.207   0.275   0.267   0.265   0.264   0.264
 2019 339   172   484   143    102    458   1143     0     0   200    0.01   0.0   0.0   0.00   0.068   0.161   0.187   0.208   0.206   0.275   0.267   0.265   0.264   0.264
 2019 340   173   483   143    102    458   1143     0     0   200    0.01   0.0   0.0   0.00   0.065   0.160   0.186   0.207   0.205   0.275   0.267   0.265   0.264   0.264
 2019 341   174   483   142    102    458   1143     0     0   200    0.01   0.0   0.0   0.00   0.063   0.159   0.185   0.206   0.205   0.275   0.267   0.264   0.264   0.264
 2019 342   175   482   142    102    458   1143     0     0   200    0.01   0.0   0.0   0.00   0.061   0.158   0.184   0.205   0.204   0.275   0.267   0.264   0.264   0.264
 2019 343   176   481   141    102    458   1143     0     0   200    0.01   0.0   0.0   0.00   0.059   0.157   0.183   0.204   0.203   0.275   0.267   0.264   0.264   0.264
 2019 344   177   481   140    102    458   1143     0     0   200    0.01   0.0   0.0   0.00   0.058   0.156   0.183   0.203   0.203   0.275   0.267   0.264   0.264   0.264
 2019 345   178   480   140    102    458   1143     0     0   200    0.01   0.0   0.0   0.00   0.056   0.155   0.182   0.203   0.202   0.275   0.267   0.264   0.264   0.264
 2019 346   179   480   139    102    458   1143     0     0   200    0.01   0.0   0.0   0.00   0.055   0.154   0.181   0.202   0.201   0.275   0.267   0.264   0.264   0.264
 2019 347   180   479   139    102    458   1143     0     0   200    0.01   0.0   0.0   0.00   0.054   0.153   0.180   0.201   0.200   0.275   0.267   0.264   0.264   0.264
 2019 348   181   479   138    102    458   1143     0     0   200    0.01   0.0   0.0   0.00   0.052   0.152   0.179   0.200   0.200   0.275   0.267   0.264   0.264   0.264
 2019 349   182   478   138    102    458   1143     0     0   200    0.01   0.0   0.0   0.00   0.051   0.151   0.178   0.199   0.199   0.275   0.267   0.264   0.264   0.264
 2019 350   183   478   137    102    458   1143     0     0   200    0.01   0.0   0.0   0.00   0.051   0.150   0.177   0.198   0.198   0.275   0.267   0.264   0.264   0.264
 2019 351   184   477   137    102    458   1143     0     0   200    0.01   0.0   0.0   0.00   0.050   0.149   0.177   0.198   0.197   0.275   0.267   0.264   0.264   0.264
 2019 352   185   477   136    102    458   1143     0     0   200    0.01   0.0   0.0   0.00   0.049   0.148   0.176   0.197   0.197   0.275   0.267   0.264   0.264   0.264
 2019 353   186   476   136    102    458   1143     0     0   200    0.01   0.0   0.0   0.00   0.048   0.148   0.175   0.196   0.196   0.275   0.267   0.264   0.264   0.264
 2019 354   187   476   135    102    458   1143     0     0   200    0.02   0.0   0.0   0.00   0.048   0.147   0.174   0.195   0.195   0.275   0.267   0.264   0.264   0.264
 2019 355   188   475   135    102    458   1143     0     0   200    0.02   0.0   0.0   0.00   0.047   0.147   0.173   0.194   0.194   0.275   0.267   0.264   0.264   0.264
 2019 356   189   475   134    102    458   1143     0     0   200    0.02   0.0   0.0   0.00   0.046   0.146   0.172   0.193   0.193   0.275   0.267   0.264   0.264   0.264
 2019 357   190   474   134    102    458   1143     0     0   200    0.02   0.0   0.0   0.00   0.046   0.146   0.171   0.192   0.193   0.275   0.267   0.264   0.264   0.264
 2019 358   191   474   133    102    458   1143     0     0   200    0.02   0.0   0.0   0.00   0.046   0.145   0.171   0.192   0.192   0.275   0.267   0.264   0.264   0.264
 2019 359   192   473   133    102    458   1143     0     0   200    0.02   0.0   0.0   0.00   0.045   0.144   0.170   0.191   0.191   0.275   0.267   0.264   0.264   0.264
 2019 360   193   473   132    102    458   1143     0     0   200    0.02   0.0   0.0   0.00   0.045   0.144   0.169   0.190   0.190   0.275   0.267   0.264   0.264   0.264
 2019 361   194   472   132    102    458   1143     0     0   200    0.02   0.0   0.0   0.00   0.044   0.143   0.168   0.189   0.189   0.275   0.266   0.264   0.264   0.264
 2019 362   195   472   131    102    458   1143     0     0   200    0.02   0.0   0.0   0.00   0.044   0.143   0.167   0.188   0.188   0.275   0.266   0.264   0.264   0.264
 2019 363   196   471   131    102    458   1143     0     0   200    0.02   0.0   0.0   0.00   0.044   0.142   0.166   0.187   0.187   0.275   0.266   0.264   0.264   0.264
 2019 364   197   471   130    102    458   1143     0     0   200    0.02   0.0   0.0   0.00   0.044   0.142   0.165   0.186   0.186   0.275   0.266   0.264   0.264   0.264
 2019 365   198   470   130    102    458   1143     0     0   200    0.02   0.0   0.0   0.00   0.043   0.141   0.165   0.184   0.185   0.275   0.266   0.264   0.264   0.264
 2020 001   199   470   129    102    458   1143     0     0   200    0.02   0.0   0.0   0.00   0.043   0.141   0.165   0.183   0.183   0.275   0.266   0.264   0.264   0.264
 2020 002   200   469   128    102    458   1143     0     0   200    0.02   0.0   0.0   0.00   0.043   0.140   0.165   0.181   0.182   0.275   0.266   0.264   0.264   0.264
 2020 003   201   468   128    102    458   1143     0     0   200    0.02   0.0   0.0   0.00   0.043   0.139   0.165   0.179   0.179   0.275   0.266   0.264   0.264   0.264
 2020 004   202   468   128    102    458   1143     0     0   200    0.02   0.0   0.0   0.00   0.043   0.139   0.164   0.179   0.179   0.275   0.266   0.264   0.264   0.264
 2020 005   203   468   127    102    458   1143     0     0   200    0.02   0.0   0.0   0.00   0.043   0.138   0.164   0.179   0.179   0.275   0.266   0.264   0.264   0.264
 2020 006   204   468   127    102    458   1143     0     0   200    0.02   0.0   0.0   0.00   0.042   0.138   0.164   0.179   0.179   0.275   0.266   0.264   0.264   0.264
 2020 007   205   468   127    102    458   1143     0     0   200    0.02   0.0   0.0   0.00   0.042   0.137   0.164   0.179   0.179   0.275   0.266   0.264   0.264   0.264
 2020 008   206   468   127    102    458   1143     0     0   200    0.02   0.0   0.0   0.00   0.042   0.137   0.164   0.179   0.179   0.275   0.266   0.264   0.264   0.264
 2020 009   207   467   127    102    458   1143     0     0   200    0.02   0.0   0.0   0.00   0.042   0.136   0.164   0.179   0.179   0.275   0.266   0.264   0.264   0.264
 2020 010   208   467   127    102    458   1143     0     0   200    0.02   0.0   0.0   0.00   0.042   0.136   0.164   0.179   0.179   0.275   0.266   0.264   0.264   0.264
 2020 011   209   467   127    102    458   1143     0     0   200    0.02   0.0   0.0   0.00   0.042   0.135   0.163   0.179   0.179   0.275   0.266   0.264   0.264   0.264
 2020 012   210   467   127    102    458   1143     0     0   200    0.02   0.0   0.0   0.00   0.042   0.135   0.163   0.179   0.179   0.275   0.266   0.264   0.264   0.264
 2020 013   211   467   127    102    458   1143     0     0   200    0.02   0.0   0.0   0.00   0.042   0.134   0.163   0.178   0.179   0.274   0.266   0.264   0.264   0.264
 2020 014   212   467   127    102    458   1143     0     0   200    0.02   0.0   0.0   0.00   0.042   0.134   0.163   0.178   0.179   0.274   0.266   0.264   0.264   0.264
 2020 015   213   467   126    102    458   1143     0     0   200    0.02   0.0   0.0   0.00   0.042   0.133   0.163   0.178   0.179   0.274   0.266   0.264   0.264   0.264
 2020 016   214   467   126    102    458   1143     0     0   200    0.02   0.0   0.0   0.00   0.042   0.133   0.163   0.178   0.179   0.274   0.266   0.264   0.264   0.264
 2020 017   215   467   126    102    458   1143     0     0   200    0.02   0.0   0.0   0.00   0.042   0.132   0.163   0.178   0.179   0.274   0.266   0.264   0.264   0.264
 2020 018   216   467   126    102    458   1143     0     0   200    0.02   0.0   0.0   0.00   0.042   0.132   0.163   0.178   0.179   0.274   0.266   0.264   0.264   0.264
 2020 019   217   466   126    102    458   1143     0     0   200    0.02   0.0   0.0   0.00   0.041   0.131   0.162   0.178   0.179   0.274   0.266   0.264   0.264   0.264
 2020 020   218   466   126    102    458   1143     0     0   200    0.02   0.0   0.0   0.00   0.041   0.131   0.162   0.178   0.179   0.274   0.266   0.264   0.264   0.264
 2020 021   219   466   126    102    458   1143     0     0   200    0.02   0.0   0.0   0.00   0.041   0.130   0.162   0.178   0.179   0.274   0.266   0.264   0.264   0.264
 2020 022   220   466   126    102    458   1143     0     0   200    0.02   0.0   0.0   0.00   0.041   0.130   0.162   0.178   0.179   0.274   0.266   0.264   0.264   0.264
 2020 023   221   466   126    102    458   1143     0     0   200    0.02   0.0   0.0   0.00   0.041   0.129   0.162   0.178   0.178   0.274   0.266   0.264   0.264   0.264
 2020 024   222   466   126    102    458   1143     0     0   200    0.02   0.0   0.0   0.00   0.041   0.129   0.162   0.178   0.178   0.274   0.266   0.264   0.264   0.264
 2020 025   223   466   125    102    458   1143     0     0   200    0.02   0.0   0.0   0.00   0.041   0.128   0.162   0.178   0.178   0.274   0.266   0.264   0.264   0.264
 2020 026   224   466   125    102    458   1143     0     0   200    0.02   0.0   0.0   0.00   0.041   0.128   0.162   0.178   0.178   0.274   0.266   0.264   0.264   0.264
 2020 027   225   466   125    102    458   1143     0     0   200    0.02   0.0   0.0   0.00   0.041   0.127   0.161   0.178   0.178   0.274   0.266   0.264   0.264   0.264
 2020 028   226   466   125    102    458   1143     0     0   200    0.01   0.0   0.0   0.00   0.041   0.127   0.161   0.178   0.178   0.274   0.266   0.264   0.264   0.264
 2020 029   227   466   125    102    458   1143     0     0   200    0.01   0.0   0.0   0.00   0.041   0.126   0.161   0.178   0.178   0.274   0.266   0.264   0.264   0.264
 2020 030   228   465   125    102    458   1143     0     0   200    0.01   0.0   0.0   0.00   0.041   0.126   0.161   0.178   0.178   0.274   0.266   0.264   0.264   0.264
 2020 031   229   465   125    102    458   1143     0     0   200    0.01   0.0   0.0   0.00   0.041   0.125   0.161   0.178   0.178   0.274   0.266   0.264   0.264   0.264
 2020 032   230   465   125    102    458   1143     0     0   200    0.01   0.0   0.0   0.00   0.041   0.125   0.161   0.177   0.178   0.274   0.266   0.264   0.264   0.264
 2020 033   231   465   125    102    458   1143     0     0   200    0.01   0.0   0.0   0.00   0.041   0.125   0.161   0.177   0.178   0.274   0.266   0.264   0.264   0.264
 2020 034   232   465   125    102    458   1143     0     0   200    0.01   0.0   0.0   0.00   0.041   0.124   0.160   0.177   0.178   0.274   0.266   0.264   0.264   0.264
 2020 035   233   465   125    102    458   1143     0     0   200    0.01   0.0   0.0   0.00   0.041   0.124   0.160   0.177   0.178   0.274   0.266   0.264   0.264   0.264
 2020 036   234   465   124    102    458   1143     0     0   200    0.01   0.0   0.0   0.00   0.041   0.123   0.160   0.177   0.178   0.274   0.266   0.264   0.264   0.264
 2020 037   235   465   124    102    458   1143     0     0   200    0.01   0.0   0.0   0.00   0.041   0.123   0.160   0.177   0.178   0.274   0.266   0.264   0.264   0.264
 2020 038   236   465   124    102    458   1143     0     0   200    0.01   0.0   0.0   0.00   0.041   0.122   0.160   0.177   0.178   0.274   0.266   0.264   0.264   0.264
 2020 039   237   465   124    102    458   1143     0     0   200    0.01   0.0   0.0   0.00   0.041   0.122   0.160   0.177   0.178   0.274   0.266   0.264   0.264   0.264
 2020 040   238   464   124    102    458   1143     0     0   200    0.01   0.0   0.0   0.00   0.041   0.121   0.160   0.177   0.178   0.274   0.266   0.264   0.264   0.264
 2020 041   239   464   124    102    458   1143     0     0   200    0.01   0.0   0.0   0.00   0.041   0.121   0.160   0.177   0.178   0.274   0.266   0.264   0.264   0.264
 2020 042   240   464   124    102    458   1143     0     0   200    0.01   0.0   0.0   0.00   0.041   0.121   0.159   0.177   0.178   0.274   0.266   0.264   0.264   0.264
 2020 043   241   464   124    102    458   1143     0     0   200    0.01   0.0   0.0   0.00   0.041   0.120   0.159   0.177   0.178   0.274   0.266   0.264   0.264   0.264
 2020 044   242   464   124    102    458   1143     0     0   200    0.01   0.0   0.0   0.00   0.041   0.120   0.159   0.177   0.178   0.274   0.266   0.264   0.264   0.264
 2020 045   243   464   124    102    458   1143     0     0   200    0.01   0.0   0.0   0.00   0.041   0.119   0.159   0.177   0.178   0.274   0.266   0.264   0.264   0.264
 2020 046   244   464   124    102    458   1143     0     0   200    0.01   0.0   0.0   0.00   0.041   0.119   0.159   0.177   0.178   0.274   0.266   0.264   0.264   0.264
 2020 047   245   464   123    102    458   1143     0     0   200    0.01   0.0   0.0   0.00   0.041   0.118   0.159   0.177   0.178   0.274   0.266   0.264   0.264   0.264
 2020 048   246   464   123    102    458   1143     0     0   200    0.01   0.0   0.0   0.00   0.041   0.118   0.159   0.177   0.178   0.274   0.266   0.264   0.264   0.264
 2020 049   247   464   123    102    458   1143     0     0   200    0.01   0.0   0.0   0.00   0.041   0.118   0.159   0.177   0.178   0.274   0.266   0.264   0.264   0.264
 2020 050   248   464   123    102    458   1143     0     0   200    0.01   0.0   0.0   0.00   0.041   0.117   0.158   0.177   0.178   0.274   0.266   0.264   0.264   0.264
 2020 051   249   464   123    102    458   1143     0     0   200    0.01   0.0   0.0   0.00   0.041   0.117   0.158   0.176   0.178   0.274   0.266   0.264   0.264   0.264
 2020 052   250   463   123    102    458   1143     0     0   200    0.01   0.0   0.0   0.00   0.041   0.116   0.158   0.176   0.178   0.274   0.266   0.264   0.264   0.264
 2020 053   251   463   123    102    458   1143     0     0   200    0.01   0.0   0.0   0.00   0.041   0.116   0.158   0.176   0.178   0.274   0.266   0.264   0.264   0.264
 2020 054   252   463   123    102    458   1143     0     0   200    0.01   0.0   0.0   0.00   0.041   0.115   0.158   0.176   0.178   0.273   0.266   0.264   0.264   0.264
 2020 055   253   463   123    102    458   1143     0     0   200    0.01   0.0   0.0   0.00   0.041   0.115   0.158   0.176   0.178   0.273   0.266   0.264   0.264   0.264
 2020 056   254   463   123    102    458   1143     0     0   200    0.01   0.0   0.0   0.00   0.041   0.115   0.158   0.176   0.178   0.273   0.266   0.264   0.264   0.264
 2020 057   255   463   123    102    458   1143     0     0   200    0.00   0.0   0.0   0.00   0.041   0.114   0.158   0.176   0.178   0.273   0.266   0.264   0.264   0.264
 2020 058   256   463   123    102    458   1143     0     0   200    0.00   0.0   0.0   0.00   0.041   0.114   0.157   0.176   0.178   0.273   0.266   0.264   0.264   0.264
 2020 059   257   463   122    102    458   1143     0     0   200    0.00   0.0   0.0   0.00   0.041   0.113   0.157   0.176   0.178   0.273   0.266   0.264   0.264   0.264
 2020 060   258   463   122    102    458   1143     0     0   200    0.00   0.0   0.0   0.00   0.041   0.113   0.157   0.176   0.177   0.273   0.266   0.264   0.264   0.264
 2020 061   259   463   122    102    458   1143     0     0   200    0.00   0.0   0.0   0.00   0.041   0.113   0.157   0.176   0.177   0.273   0.266   0.264   0.264   0.264
 2020 062   260   463   122    102    458   1143     0     0   200    0.00   0.0   0.0   0.00   0.041   0.112   0.157   0.176   0.177   0.273   0.266   0.264   0.264   0.264
 2020 063   261   463   122    102    458   1143     0     0   200    0.03   0.0   0.0   0.00   0.043   0.112   0.157   0.176   0.177   0.273   0.266   0.264   0.264   0.264
 2020 064   262   463   122    102    458   1143     0     0   200    0.05   0.0   0.0   0.00   0.044   0.112   0.157   0.176   0.177   0.273   0.266   0.264   0.264   0.264
 2020 065   263   462   122    102    458   1143     0     0   200    0.04   0.0   0.0   0.00   0.044   0.111   0.157   0.176   0.177   0.273   0.266   0.264   0.264   0.264
 2020 066   264   462   122    102    458   1143     0     0   200    0.03   0.0   0.0   0.00   0.043   0.111   0.156   0.176   0.177   0.273   0.266   0.264   0.264   0.264
 2020 067   265   462   122    102    458   1143     0     0   200    0.02   0.0   0.0   0.00   0.043   0.110   0.156   0.176   0.177   0.273   0.266   0.264   0.264   0.264
 2020 068   266   462   122    102    458   1143     0     0   200    0.02   0.0   0.0   0.00   0.043   0.110   0.156   0.176   0.177   0.273   0.266   0.264   0.264   0.264
 2020 069   267   462   122    102    458   1143     0     0   200    0.02   0.0   0.0   0.00   0.043   0.110   0.156   0.176   0.177   0.273   0.266   0.264   0.264   0.264
 2020 070   268   462   122    102    458   1143     0     0   200    0.04   0.0   0.0   0.00   0.044   0.109   0.156   0.175   0.177   0.273   0.266   0.264   0.264   0.264
 2020 071   269   462   122    102    458   1144     0     0   200    0.06   0.0   0.0   0.00   0.045   0.109   0.156   0.175   0.177   0.273   0.266   0.264   0.264   0.264
 2020 072   270   462   122    102    458   1144     0     0   200    0.07   0.0   0.0   0.00   0.046   0.109   0.156   0.175   0.177   0.273   0.266   0.264   0.264   0.264
 2020 073   271   462   121    102    458   1144     0     0   200    0.06   0.0   0.0   0.00   0.046   0.108   0.156   0.175   0.177   0.273   0.266   0.264   0.264   0.264
 2020 074   272   462   121    102    458   1144     0     0   200    0.04   0.0   0.0   0.00   0.045   0.108   0.155   0.175   0.177   0.273   0.266   0.264   0.264   0.264
 2020 075   273   462   121    102    458   1144     0     0   200    0.03   0.0   0.0   0.00   0.045   0.107   0.155   0.175   0.177   0.273   0.266   0.264   0.264   0.264
 2020 076   274   462   121    102    458   1144     0     0   200    0.03   0.0   0.0   0.00   0.045   0.107   0.155   0.175   0.177   0.273   0.266   0.264   0.264   0.264
 2020 077   275   461   121    102    458   1144     0     0   200    0.02   0.0   0.0   0.00   0.044   0.107   0.155   0.175   0.177   0.273   0.266   0.264   0.264   0.264
 2020 078   276   461   121    102    458   1144     0     0   200    0.02   0.0   0.0   0.00   0.044   0.106   0.155   0.175   0.177   0.273   0.266   0.264   0.264   0.264
 2020 079   277   461   121    102    458   1144     0     0   200    0.04   0.0   0.0   0.00   0.045   0.106   0.155   0.175   0.177   0.273   0.265   0.264   0.264   0.264
 2020 080   278   461   121    102    458   1144     0     0   200    0.06   0.0   0.0   0.00   0.046   0.106   0.155   0.175   0.177   0.273   0.265   0.264   0.264   0.264
 2020 081   279   461   121    102    458   1144     0     0   200    0.10   0.0   0.0   0.00   0.049   0.105   0.155   0.175   0.177   0.273   0.265   0.264   0.264   0.264
 2020 082   280   462   122    102    458   1145     0     0   200    0.26   0.0   0.0   0.00   0.062   0.105   0.154   0.175   0.177   0.273   0.265   0.264   0.264   0.264
 2020 083   281   465   125    102    458   1149     0     0   200    0.23   0.0   0.0   0.00   0.130   0.105   0.154   0.175   0.177   0.273   0.265   0.264   0.264   0.264
 2020 084   282   475   135    102    458   1160     0     0   200    0.27   0.0   0.0   0.00   0.281   0.131   0.154   0.175   0.177   0.273   0.265   0.264   0.264   0.264
 2020 085   283   477   137    102    458   1166     0     0   200    0.26   0.0   0.0   0.00   0.290   0.174   0.152   0.173   0.175   0.271   0.264   0.262   0.262   0.263
 2020 086   284   473   133    102    458   1167     0     0   200    0.27   0.0   0.0   0.00   0.247   0.185   0.150   0.171   0.174   0.269   0.262   0.261   0.261   0.262
 2020 087   285   468   127    102    458   1167     0     0   200    0.21   0.0   0.0   0.00   0.211   0.182   0.147   0.169   0.172   0.266   0.260   0.259   0.260   0.260
 2020 088   286   467   126    102    458   1167     0     0   200    0.24   0.0   0.0   0.00   0.199   0.181   0.147   0.169   0.172   0.266   0.260   0.259   0.260   0.260
 2020 089   287   468   127    102    458   1169     0     0   200    0.26   0.0   0.0   0.00   0.217   0.182   0.147   0.169   0.172   0.266   0.260   0.259   0.260   0.260
 2020 090   288   468   127    102    458   1170     0     0   200    0.26   0.0   0.0   0.00   0.214   0.181   0.147   0.169   0.172   0.266   0.260   0.259   0.260   0.260
 2020 091   289   471   130    102    458   1177     0     0   200    0.27   0.0   0.0   0.00   0.278   0.204   0.145   0.167   0.171   0.264   0.259   0.258   0.259   0.259
 2020 092   290   467   126    102    458   1177     0     0   200    0.26   0.0   0.0   0.00   0.238   0.209   0.143   0.165   0.169   0.262   0.257   0.257   0.258   0.259
 2020 093   291   462   122    102    458   1177     0     0   200    0.25   0.0   0.0   0.00   0.215   0.205   0.141   0.164   0.168   0.260   0.256   0.256   0.257   0.257
 2020 094   292   463   122    102    458   1179     0     0   200    0.27   0.0   0.0   0.00   0.221   0.207   0.141   0.164   0.168   0.260   0.256   0.256   0.257   0.257
 2020 095   293   462   122    102    458   1180     0     0   200    0.26   0.0   0.0   0.00   0.215   0.206   0.140   0.164   0.168   0.260   0.256   0.256   0.257   0.257
 2020 096   294   461   121    102    458   1180     0     0   200    0.27   0.0   0.0   0.00   0.203   0.205   0.140   0.164   0.168   0.260   0.256   0.256   0.257   0.257
 2020 097   295   467   127    102    458   1191     0     0   200    0.27   0.0   0.0   0.00   0.294   0.241   0.142   0.162   0.166   0.258   0.254   0.254   0.255   0.256
 2020 098   296   472   132    102    458   1201     0     0   200    0.27   0.0   0.0   0.00   0.286   0.280   0.171   0.160   0.165   0.256   0.253   0.253   0.254   0.255
 2020 099   297   475   135    102    458   1209     0     0   200    0.27   0.0   0.0   0.00   0.293   0.283   0.201   0.158   0.164   0.254   0.251   0.252   0.253   0.254
 2020 100   298   481   140    102    458   1218     0     0   200    0.27   0.0   0.0   0.00   0.299   0.295   0.237   0.157   0.163   0.253   0.250   0.251   0.252   0.254
 2020 101   299   508   168    104    458   1251     0     0   200    0.27   0.0   0.0   1.86   0.302   0.311   0.325   0.250   0.162   0.252   0.249   0.250   0.252   0.253
 2020 102   300   512   171    104    458   1259     0     0   200    0.27   0.0   0.0   0.00   0.297   0.303   0.312   0.289   0.173   0.251   0.248   0.249   0.251   0.252
 2020 103   301   507   166    104    458   1259     0     0   200    0.23   0.0   0.0   0.00   0.247   0.273   0.295   0.299   0.196   0.249   0.247   0.248   0.250   0.251
 2020 104   302   502   161    104    458   1259     0     0   200    0.28   0.0   0.0   0.00   0.224   0.252   0.279   0.296   0.215   0.247   0.246   0.247   0.249   0.251
 2020 105   303   500   159    104    458   1263     0     0   200    0.26   0.0   0.0   0.00   0.245   0.247   0.269   0.290   0.228   0.245   0.244   0.246   0.248   0.250
 2020 106   304   501   160    104    458   1269     0     0   200    0.27   0.0   0.0   0.00   0.285   0.253   0.267   0.286   0.236   0.244   0.243   0.245   0.247   0.249
 2020 107   305   495   154    104    458   1269     0     0   200    0.21   0.0   0.0   0.00   0.233   0.239   0.259   0.278   0.252   0.242   0.241   0.243   0.246   0.248
 2020 108   306   490   150    104    458   1269     0     0   200    0.16   0.0   0.0   0.00   0.213   0.232   0.254   0.275   0.249   0.240   0.240   0.242   0.245   0.247
 2020 109   307   489   148    104    458   1269     0     0   200    0.12   0.0   0.0   0.00   0.197   0.230   0.253   0.274   0.249   0.240   0.240   0.242   0.245   0.247
 2020 110   308   487   147    104    458   1269     0     0   200    0.10   0.0   0.0   0.00   0.182   0.228   0.252   0.274   0.249   0.240   0.240   0.242   0.245   0.247
 2020 111   309   486   146    104    458   1269     0     0   200    0.07   0.0   0.0   0.00   0.170   0.226   0.251   0.273   0.248   0.240   0.240   0.242   0.245   0.247
 2020 112   310   485   145    104    458   1270     0     0   200    0.11   0.0   0.0   0.00   0.161   0.224   0.250   0.272   0.248   0.240   0.240   0.242   0.245   0.247
 2020 113   311   485   144    104    458   1270     0     0   200    0.25   0.0   0.0   0.00   0.158   0.221   0.249   0.271   0.248   0.240   0.240   0.242   0.245   0.247
 2020 114   312   484   144    104    458   1271     0     0   200    0.24   0.0   0.0   0.00   0.159   0.219   0.248   0.270   0.247   0.240   0.240   0.242   0.245   0.247
 2020 115   313   484   143    104    458   1272     0     0   200    0.27   0.0   0.0   0.00   0.165   0.217   0.246   0.269   0.247   0.240   0.240   0.242   0.245   0.247
 2020 116   314   490   150    104    458   1283     0     0   200    0.26   0.0   0.0   0.00   0.299   0.240   0.244   0.266   0.245   0.239   0.239   0.241   0.244   0.246
 2020 117   315   492   151    104    458   1289     0     0   200    0.27   0.0   0.0   0.00   0.295   0.261   0.257   0.263   0.243   0.237   0.238   0.240   0.243   0.245
 2020 118   316   492   152    104    458   1295     0     0   200    0.26   0.0   0.0   0.00   0.295   0.265   0.265   0.267   0.241   0.236   0.237   0.239   0.242   0.244
 2020 119   317   490   150    104    458   1298     0     0   200    0.27   0.0   0.0   0.00   0.274   0.259   0.266   0.273   0.239   0.235   0.235   0.238   0.241   0.244
 2020 120   318   492   152    104    458   1304     0     0   200    0.27   0.0   0.0   0.00   0.297   0.266   0.270   0.279   0.240   0.233   0.235   0.238   0.241   0.243
 2020 121   319   493   153    104    458   1310     0     0   200    0.27   0.0   0.0   0.00   0.298   0.270   0.273   0.283   0.246   0.232   0.234   0.237   0.240   0.242
 2020 122   320   492   152    104    458   1313     0     0   200    0.27   0.0   0.0   0.00   0.281   0.263   0.272   0.285   0.253   0.231   0.233   0.236   0.239   0.242
 2020 123   321   490   149    104    458   1316     0     0   200    0.27   0.0   0.0   0.00   0.267   0.256   0.269   0.284   0.260   0.230   0.232   0.235   0.238   0.241
 2020 124   322   491   151    104    458   1322     0     0   200    0.27   0.0   0.0   0.00   0.296   0.260   0.269   0.284   0.266   0.228   0.231   0.234   0.238   0.240
 2020 125   323   491   151    104    458   1326     0     0   200    0.27   0.0   0.0   0.00   0.293   0.261   0.270   0.285   0.272   0.228   0.230   0.234   0.237   0.240
 2020 126   324   487   147    104    458   1328     0     0   200    0.27   0.0   0.0   0.00   0.260   0.254   0.267   0.283   0.276   0.226   0.229   0.233   0.236   0.239
 2020 127   325   482   142    104    458   1328     0     0   200    0.23   0.0   0.0   0.00   0.228   0.244   0.262   0.280   0.278   0.225   0.228   0.232   0.235   0.238
 2020 128   326   479   139    104    458   1329     0     0   200    0.28   0.0   0.0   0.00   0.226   0.239   0.259   0.276   0.275   0.224   0.227   0.231   0.235   0.238
 2020 129   327   476   135    104    458   1330     0     0   200    0.26   0.0   0.0   0.00   0.224   0.235   0.255   0.273   0.272   0.222   0.226   0.230   0.234   0.237
 2020 130   328   482   141    104    458   1340     0     0   200    0.27   0.0   0.0   0.00   0.302   0.258   0.262   0.274   0.270   0.222   0.225   0.229   0.233   0.236
 2020 131   329   480   140    104    458   1342     0     0   200    0.26   0.0   0.0   0.00   0.277   0.257   0.265   0.278   0.267   0.221   0.224   0.229   0.233   0.236
 2020 132   330   478   137    104    458   1345     0     0   200    0.27   0.0   0.0   0.00   0.262   0.253   0.264   0.278   0.267   0.219   0.223   0.228   0.232   0.235
 2020 133   331   474   134    104    458   1346     0     0   200    0.27   0.0   0.0   0.00   0.238   0.245   0.262   0.277   0.266   0.218   0.222   0.227   0.231   0.234
 2020 134   332   470   130    104    458   1346     0     0   200    0.27   0.0   0.0   0.00   0.224   0.239   0.259   0.274   0.263   0.217   0.221   0.226   0.231   0.234
 2020 135   333   468   128    104    458   1347     0     0   200    0.27   0.0   0.0   0.00   0.213   0.236   0.257   0.272   0.262   0.217   0.221   0.226   0.231   0.234
 2020 136   334   469   129    104    458   1352     0     0   200    0.27   0.0   0.0   0.00   0.258   0.242   0.257   0.270   0.260   0.216   0.221   0.226   0.230   0.233
 2020 137   335   470   129    104    458   1357     0     0   200    0.27   0.0   0.0   0.00   0.282   0.249   0.259   0.268   0.257   0.215   0.220   0.225   0.229   0.233
 2020 138   336   472   132    104    458   1365     0     0   200    0.27   0.0   0.0   0.00   0.294   0.268   0.266   0.274   0.253   0.214   0.219   0.224   0.229   0.232
 2020 139   337   483   142    104    458   1379     0     0   200    0.27   0.0   0.0   0.00   0.299   0.309   0.288   0.288   0.264   0.213   0.218   0.223   0.228   0.231
 2020 140   338   500   159    104    458   1400     0     0   200    0.27   0.0   0.0   0.02   0.303   0.311   0.325   0.322   0.292   0.220   0.217   0.223   0.228   0.231
 2020 141   339   513   173    104    458   1417     0     0   200    0.27   0.0   0.0   0.00   0.301   0.310   0.324   0.336   0.326   0.244   0.217   0.222   0.227   0.231
 2020 142   340   517   177    104    458   1426     0     0   200    0.27   0.0   0.0   0.00   0.299   0.307   0.312   0.331   0.327   0.268   0.216   0.222   0.227   0.230
 2020 143   341   520   180    104    458   1433     0     0   200    0.27   0.0   0.0   0.00   0.299   0.299   0.304   0.325   0.325   0.284   0.223   0.221   0.226   0.230
 2020 144   342   516   175    104    458   1433     0     0   200    0.26   0.0   0.0   0.00   0.253   0.272   0.290   0.315   0.318   0.290   0.236   0.220   0.225   0.229
 2020 145   343   515   175    104    458   1435     0     0   200    0.27   0.0   0.0   0.00   0.252   0.260   0.280   0.305   0.311   0.291   0.251   0.220   0.225   0.229
 2020 146   344   514   174    104    458   1437     0     0   200    0.27   0.0   0.0   0.00   0.254   0.254   0.273   0.297   0.303   0.290   0.264   0.220   0.225   0.228
 2020 147   345   512   171    104    458   1439     0     0   200    0.27   0.0   0.0   0.00   0.248   0.248   0.267   0.289   0.295   0.287   0.270   0.223   0.224   0.228
 2020 148   346   510   170    104    458   1442     0     0   200    0.27   0.0   0.0   0.00   0.253   0.247   0.264   0.284   0.288   0.284   0.272   0.227   0.224   0.227
 2020 149   347   507   167    104    458   1443     0     0   200    0.27   0.0   0.0   0.00   0.237   0.243   0.261   0.280   0.283   0.281   0.272   0.231   0.223   0.227
 2020 150   348   504   164    104    458   1445     0     0   200    0.27   0.0   0.0   0.00   0.238   0.240   0.259   0.276   0.278   0.278   0.270   0.233   0.223   0.226
 2020 151   349   523   182    104    458   1467     0     0   200    0.27   0.0   0.0   0.00   0.302   0.310   0.292   0.292   0.284   0.278   0.269   0.235   0.222   0.226
 2020 152   350   520   180    104    458   1469     0     0   200    0.27   0.0   0.0   0.00   0.272   0.281   0.287   0.297   0.289   0.280   0.270   0.237   0.222   0.225
 2020 153   351   519   179    104    458   1470     0     0   200    0.27   0.0   0.0   0.00   0.262   0.266   0.281   0.297   0.292   0.281   0.271   0.240   0.221   0.225
 2020 154   352   517   177    104    458   1473     0     0   200    0.27   0.0   0.0   0.00   0.255   0.256   0.273   0.293   0.291   0.282   0.271   0.244   0.221   0.225
 2020 155   353   515   175    104    458   1475     0     0   200    0.27   0.0   0.0   0.00   0.257   0.251   0.268   0.287   0.288   0.281   0.271   0.247   0.220   0.224
 2020 156   354   513   173    104    458   1477     0     0   200    0.27   0.0   0.0   0.00   0.251   0.248   0.264   0.283   0.285   0.280   0.271   0.250   0.220   0.224
 2020 157   355   521   180    104    458   1490     0     0   200    0.27   0.0   0.0   0.00   0.299   0.283   0.274   0.286   0.284   0.279   0.270   0.253   0.219   0.223
 2020 158   356   532   191    104    458   1504     0     0   200    0.27   0.0   0.0   0.00   0.304   0.311   0.297   0.299   0.291   0.281   0.271   0.256   0.219   0.223
 2020 159   357   541   200    104    458   1518     0     0   200    0.27   0.0   0.0   0.00   0.297   0.308   0.317   0.315   0.302   0.284   0.273   0.260   0.218   0.222
 2020 160   358   548   208    104    458   1531     0     0   200    0.27   0.0   0.0   0.00   0.299   0.309   0.318   0.324   0.312   0.288   0.276   0.266   0.220   0.222
 2020 161   359   556   216    104    458   1543     0     0   200    0.27   0.0   0.0   0.00   0.302   0.310   0.320   0.329   0.319   0.292   0.279   0.270   0.226   0.221
 2020 162   360   555   215    104    458   1547     0     0   200    0.27   0.0   0.0   0.00   0.295   0.285   0.302   0.323   0.320   0.294   0.282   0.274   0.237   0.221
 2020 163   361   564   224    104    458   1560     0     0   200    0.27   0.0   0.0   0.00   0.302   0.310   0.307   0.323   0.320   0.296   0.284   0.277   0.249   0.221
 2020 164   362   581   240    104    458   1580     0     0   200    0.27   0.0   0.0   0.02   0.304   0.310   0.324   0.336   0.337   0.302   0.288   0.280   0.266   0.220
 2020 165   363   594   254    104    458   1598     0     0   200    0.27   0.0   0.0   0.00   0.302   0.310   0.324   0.336   0.337   0.313   0.296   0.286   0.276   0.238
 2020 166   364   596   255    104    458   1604     0     0   200    0.27   0.0   0.0   0.00   0.301   0.294   0.307   0.329   0.331   0.308   0.297   0.289   0.282   0.266
 2020 167   365   589   249    104    461   1605     0     0   197    0.27   0.0   0.0   0.00   0.269   0.272   0.292   0.318   0.323   0.303   0.295   0.290   0.286   0.281
 2020 168   366   582   242    104    467   1607     0     0   196    0.27   0.0   0.0   0.00   0.262   0.260   0.280   0.307   0.314   0.298   0.292   0.289   0.287   0.290
 2020 169   367   577   236    104    473   1611     0     0   195    0.27   0.0   0.0   0.00   0.278   0.259   0.275   0.299   0.305   0.294   0.288   0.286   0.286   0.294
 2020 170   368   572   232    104    479   1615     0     0   195    0.27   0.0   0.0   0.00   0.292   0.261   0.273   0.293   0.298   0.290   0.284   0.283   0.285   0.294
 2020 171   369   567   226    104    485   1620     0     0   196    0.27   0.0   0.0   0.00   0.294   0.262   0.272   0.290   0.293   0.287   0.281   0.280   0.282   0.292
 2020 172   370   559   218    104    490   1621     0     0   196    0.27   0.0   0.0   0.00   0.268   0.256   0.269   0.287   0.289   0.284   0.278   0.276   0.279   0.289
 2020 173   371   553   212    104    494   1624     0     0   197    0.27   0.0   0.0   0.00   0.265   0.253   0.267   0.284   0.285   0.282   0.275   0.273   0.276   0.285
 2020 174   372   547   207    104    498   1626     0     0   197    0.27   0.0   0.0   0.00   0.253   0.249   0.265   0.282   0.283   0.280   0.273   0.271   0.273   0.281
 2020 175   373   542   202    104    501   1628     0     0   198    0.27   0.0   0.0   0.00   0.254   0.247   0.262   0.280   0.280   0.278   0.271   0.268   0.270   0.277
 2020 176   374   537   197    104    503   1630     0     0   199    0.27   0.0   0.0   0.00   0.242   0.243   0.260   0.277   0.278   0.277   0.270   0.265   0.268   0.273
 2020 177   375   537   197    104    504   1636     0     0   199    0.27   0.0   0.0   0.00   0.286   0.250   0.261   0.277   0.275   0.276   0.269   0.265   0.265   0.269
 2020 178   376   542   202    104    504   1643     0     0   200    0.27   0.0   0.0   0.00   0.310   0.274   0.271   0.282   0.278   0.275   0.268   0.264   0.265   0.266
 2020 179   377   544   204    104    504   1649     0     0   200    0.27   0.0   0.0   0.00   0.302   0.279   0.276   0.287   0.281   0.277   0.268   0.264   0.264   0.266
 2020 180   378   548   207    104    504   1655     0     0   200    0.27   0.0   0.0   0.00   0.306   0.282   0.281   0.292   0.285   0.278   0.269   0.263   0.264   0.266
 2020 181   379   553   212    104    504   1664     0     0   200    0.27   0.0   0.0   0.00   0.306   0.295   0.287   0.297   0.290   0.280   0.270   0.265   0.264   0.265
 2020 182   380   552   212    104    504   1667     0     0   200    0.27   0.0   0.0   0.00   0.294   0.279   0.284   0.298   0.293   0.282   0.271   0.266   0.266   0.265
 2020 183   381   548   207    104    505   1667     0     0   200    0.27   0.0   0.0   0.00   0.254   0.261   0.277   0.295   0.293   0.283   0.272   0.267   0.266   0.266
 2020 184   382   542   202    104    505   1668     0     0   200    0.26   0.0   0.0   0.00   0.228   0.246   0.268   0.288   0.289   0.282   0.272   0.267   0.266   0.266
 2020 185   383   549   209    104    506   1678     0     0   200    0.27   0.0   0.0   0.00   0.306   0.271   0.272   0.288   0.287   0.281   0.272   0.267   0.267   0.267
 2020 186   384   548   208    104    507   1681     0     0   199    0.27   0.0   0.0   0.00   0.290   0.267   0.274   0.289   0.287   0.281   0.272   0.267   0.267   0.268
 2020 187   385   558   218    104    508   1695     0     0   199    0.27   0.0   0.0   0.00   0.305   0.311   0.289   0.296   0.291   0.282   0.272   0.268   0.267   0.268
 2020 188   386   554   214    104    509   1696     0     0   199    0.27   0.0   0.0   0.00   0.269   0.281   0.286   0.299   0.293   0.283   0.273   0.268   0.267   0.268
 2020 189   387   553   213    104    510   1700     0     0   199    0.27   0.0   0.0   0.00   0.285   0.269   0.280   0.297   0.294   0.283   0.273   0.268   0.268   0.269
 2020 190   388   552   211    104    511   1704     0     0   199    0.27   0.0   0.0   0.00   0.282   0.263   0.276   0.294   0.293   0.283   0.274   0.269   0.268   0.269
 2020 191   389   548   208    104    512   1705     0     0   199    0.27   0.0   0.0   0.00   0.259   0.255   0.271   0.290   0.290   0.283   0.273   0.269   0.268   0.270
 2020 192   390   557   217    104    514   1717     0     0   199    0.27   0.0   0.0   0.00   0.312   0.291   0.282   0.294   0.292   0.283   0.274   0.269   0.269   0.270
 2020 193   391   559   219    104    515   1724     0     0   199    0.27   0.0   0.0   0.00   0.303   0.296   0.287   0.298   0.294   0.283   0.274   0.269   0.269   0.271
 2020 194   392   557   217    104    516   1726     0     0   199    0.27   0.0   0.0   0.00   0.280   0.277   0.285   0.299   0.296   0.284   0.274   0.270   0.269   0.271
 2020 195   393   555   214    104    518   1728     0     0   199    0.27   0.0   0.0   0.00   0.271   0.266   0.279   0.297   0.295   0.285   0.275   0.270   0.269   0.272
 2020 196   394   556   215    104    520   1734     0     0   199    0.27   0.0   0.0   0.00   0.299   0.266   0.277   0.294   0.294   0.284   0.275   0.270   0.270   0.272
 2020 197   395   583   242    106    522   1767     0     0   199    0.27   0.0   0.0   1.88   0.308   0.313   0.325   0.337   0.322   0.291   0.279   0.272   0.271   0.273
 2020 198   396   605   265    107    524   1797     0     0   198    0.27   0.0   0.0   1.22   0.306   0.311   0.325   0.337   0.337   0.323   0.296   0.282   0.276   0.278
 2020 199   397   624   283    108    529   1823     0     0   196    0.27   0.0   0.0   0.61   0.310   0.313   0.326   0.338   0.338   0.337   0.312   0.295   0.286   0.287
 2020 200   398   624   283    108    536   1833     0     0   195    0.27   0.0   0.0   0.00   0.305   0.311   0.321   0.337   0.336   0.321   0.312   0.301   0.293   0.297
 2020 201   399   623   283    108    544   1843     0     0   194    0.27   0.0   0.0   0.00   0.309   0.312   0.319   0.336   0.335   0.313   0.308   0.303   0.298   0.306
 2020 202   400   622   282    108    554   1856     0     0   193    0.27   0.0   0.0   0.00   0.307   0.312   0.324   0.337   0.336   0.309   0.304   0.301   0.299   0.311
 2020 203   401   622   282    108    564   1869     0     0   192    0.27   0.0   0.0   0.00   0.304   0.310   0.324   0.336   0.336   0.310   0.303   0.300   0.299   0.314
 2020 204   402   616   275    108    574   1877     0     0   192    0.27   0.0   0.0   0.00   0.304   0.306   0.312   0.331   0.333   0.307   0.300   0.298   0.298   0.315
 2020 205   403   638   298    112    585   1918     0     0   192    0.27   0.0   0.0   4.65   0.307   0.312   0.325   0.337   0.337   0.337   0.318   0.305   0.302   0.318
 2020 206   404   650   309    113    597   1945     0     0   191    0.27   0.0   0.0   0.77   0.308   0.312   0.325   0.337   0.337   0.337   0.332   0.317   0.309   0.324
 2020 207   405   650   310    113    611   1962     0     0   190    0.27   0.0   0.0   0.00   0.311   0.313   0.326   0.338   0.338   0.331   0.327   0.319   0.314   0.329
 2020 208   406   639   299    113    627   1970     0     0   190    0.27   0.0   0.0   0.00   0.304   0.309   0.314   0.333   0.334   0.318   0.317   0.316   0.315   0.329
 2020 209   407   636   296    113    641   1985     0     0   190    0.27   0.0   0.0   0.00   0.310   0.313   0.326   0.337   0.338   0.312   0.310   0.311   0.313   0.329

*DSSAT Cropping System Model Ver. 4.8.0.019 -develop  APR 08, 2023 12:34:37

*RUN   2        : IITA-TMS-IBA000070        CSYCA048 UYAG1701    1
 MODEL          : CSYCA048 - Cassava
 EXPERIMENT     : UYAG1701 CS UYT_GXE
 DATA PATH      :
 TREATMENT  1   : IITA-TMS-IBA000070        CSYCA048
  
!                                                                                                 Soil water content (mm3/mm3) by soil depth (cm):
!                                                                                                 0-5    5-15   15-30   30-45   45-60   60-80  80-100 100-150 150-200
@YEAR DOY   DAS  SWTD  SWXD   ROFC   DRNC   PREC  IR#C  IRRC  DTWT    MWTD  TDFD  TDFC   ROFD    SW1D    SW2D    SW3D    SW4D    SW5D    SW6D    SW7D    SW8D    SW9D
 2017 240     0   544   206      0      0      0     0     0     0    0.00   0.0   0.0   0.00   0.237   0.250   0.269   0.285   0.285   0.283   0.283   0.268   0.268
 2017 241     1   550   212      0      0      8     0     0   100    0.00   0.0   0.0   0.00   0.314   0.266   0.274   0.287   0.286   0.283   0.282   0.268   0.268
 2017 242     2   556   217      0      0     17     0     0   200    0.00   0.0   0.0   0.00   0.308   0.294   0.285   0.293   0.289   0.284   0.284   0.267   0.267
 2017 243     3   559   221      0      0     24     0     0   200    0.00   0.0   0.0   0.00   0.305   0.298   0.292   0.300   0.294   0.286   0.284   0.267   0.266
 2017 244     4   558   220      0      0     27     0     0   200    0.00   0.0   0.0   0.00   0.293   0.283   0.290   0.302   0.297   0.288   0.286   0.268   0.266
 2017 245     5   562   223      0      0     33     0     0   200    0.00   0.0   0.0   0.00   0.309   0.287   0.291   0.304   0.300   0.291   0.288   0.269   0.265
 2017 246     6   566   228      0      0     41     0     0   200    0.00   0.0   0.0   0.00   0.309   0.298   0.295   0.307   0.303   0.293   0.290   0.270   0.267
 2017 247     7   571   233      0      0     50     0     0   200    0.00   0.0   0.0   0.04   0.304   0.309   0.300   0.311   0.306   0.295   0.292   0.270   0.269
 2017 248     8   572   234      0      1     55     0     0   199    0.00   0.0   0.0   0.00   0.308   0.298   0.299   0.313   0.309   0.297   0.294   0.271   0.270
 2017 249     9   578   240      0      3     67     0     0   199    0.00   0.0   0.0   0.23   0.307   0.317   0.309   0.318   0.313   0.300   0.297   0.272   0.270
 2017 250    10   605   267     10      5    108     0     0   198    0.00   0.0   0.0  10.20   0.313   0.319   0.332   0.343   0.343   0.335   0.315   0.276   0.273
 2017 251    11   605   267     11     10    116     0     0   197    0.00   0.0   0.0   0.04   0.307   0.315   0.321   0.339   0.340   0.329   0.322   0.279   0.276
 2017 252    12   600   261     11     15    120     0     0   196    0.00   0.0   0.0   0.00   0.305   0.296   0.309   0.331   0.335   0.324   0.322   0.281   0.278
 2017 253    13   598   260     11     21    129     0     0   196    0.00   0.0   0.0   0.02   0.303   0.305   0.306   0.325   0.329   0.319   0.320   0.281   0.279
 2017 254    14   594   256     11     27    135     0     0   195    0.00   0.0   0.0   0.00   0.307   0.298   0.302   0.321   0.325   0.315   0.317   0.281   0.280
 2017 255    15   590   252     11     34    142     0     0   196    0.00   0.0   0.0   0.00   0.304   0.295   0.299   0.317   0.320   0.311   0.314   0.280   0.280
 2017 256    16   582   244     11     39    143     0     0   196    0.00   0.0   0.0   0.00   0.276   0.278   0.292   0.312   0.315   0.308   0.310   0.279   0.279
 2017 257    17   572   234     11     45    144     0     0   196    0.00   0.0   0.0   0.00   0.247   0.263   0.283   0.305   0.309   0.303   0.306   0.277   0.278
 2017 258    18   566   228     11     49    146     0     0   197    0.00   0.0   0.0   0.00   0.255   0.257   0.277   0.298   0.303   0.299   0.302   0.276   0.276
 2017 259    19   563   225     11     53    150     0     0   197    0.00   0.0   0.0   0.00   0.273   0.259   0.275   0.294   0.298   0.295   0.298   0.274   0.275
 2017 260    20   556   218     11     56    150     0     0   198    0.00   0.0   0.0   0.00   0.249   0.254   0.272   0.290   0.293   0.291   0.294   0.273   0.274
 2017 261    21   553   215     11     59    154     0     0   198    0.00   0.0   0.0   0.00   0.267   0.255   0.271   0.288   0.290   0.288   0.290   0.271   0.272
 2017 262    22   551   213     11     60    156     0     0   199    0.00   0.0   0.0   0.00   0.266   0.256   0.271   0.287   0.288   0.286   0.288   0.270   0.271
 2017 263    23   547   208     11     61    158     0     0   199    0.00   0.0   0.0   0.00   0.251   0.253   0.269   0.285   0.286   0.284   0.285   0.269   0.269
 2017 264    24   550   212     11     61    164     0     0   200    0.00   0.0   0.0   0.00   0.301   0.263   0.272   0.286   0.286   0.284   0.284   0.268   0.269
 2017 265    25   548   210     11     61    166     0     0   200    0.00   0.0   0.0   0.00   0.278   0.262   0.273   0.287   0.286   0.285   0.283   0.267   0.268
 2017 266    26   552   214     11     61    174     0     0   200    0.00   0.0   0.0   0.00   0.301   0.279   0.279   0.291   0.288   0.284   0.284   0.266   0.267
 2017 267    27   561   223     11     61    188     0     0   200    0.00   0.0   0.0   0.31   0.303   0.314   0.295   0.301   0.294   0.286   0.285   0.266   0.267
 2017 268    28   566   228     11     61    198     0     0   200    0.00   0.0   0.0   0.15   0.302   0.314   0.305   0.311   0.302   0.290   0.287   0.267   0.266
 2017 269    29   571   233     11     61    206     0     0   200    0.00   0.0   0.0   0.03   0.310   0.313   0.307   0.317   0.309   0.295   0.291   0.270   0.266
 2017 270    30   574   236     11     61    213     0     0   200    0.00   0.0   0.0   0.01   0.301   0.305   0.304   0.318   0.313   0.299   0.294   0.271   0.268
 2017 271    31   575   236     11     63    220     0     0   199    0.00   0.0   0.0   0.00   0.304   0.296   0.300   0.316   0.314   0.301   0.297   0.272   0.270
 2017 272    32   577   239     11     64    228     0     0   199    0.00   0.0   0.0   0.02   0.305   0.305   0.301   0.316   0.315   0.302   0.299   0.272   0.271
 2017 273    33   574   236     11     66    231     0     0   199    0.00   0.0   0.0   0.00   0.284   0.284   0.294   0.313   0.313   0.303   0.301   0.273   0.272
 2017 274    34   568   230     11     69    233     0     0   198    0.00   0.0   0.0   0.00   0.272   0.269   0.285   0.306   0.309   0.301   0.300   0.273   0.272
 2017 275    35   565   227     11     72    237     0     0   198    0.00   0.0   0.0   0.00   0.280   0.265   0.279   0.300   0.304   0.298   0.299   0.273   0.272
 2017 276    36   566   227     11     74    246     0     0   198    0.00   0.0   0.0   0.00   0.298   0.280   0.281   0.298   0.301   0.296   0.297   0.272   0.272
 2017 277    37   566   228     11     76    253     0     0   199    0.00   0.0   0.0   0.00   0.303   0.285   0.284   0.299   0.300   0.294   0.295   0.272   0.272
 2017 278    38   575   237     12     78    270     0     0   199    0.00   0.0   0.0   0.89   0.302   0.314   0.310   0.312   0.305   0.295   0.295   0.272   0.271
 2017 279    39   570   231     12     80    272     0     0   199    0.00   0.0   0.0   0.00   0.276   0.284   0.297   0.312   0.308   0.297   0.295   0.271   0.271
 2017 280    40   572   234     12     82    281     0     0   199    0.00   0.0   0.0   0.00   0.306   0.291   0.295   0.311   0.309   0.299   0.296   0.272   0.271
 2017 281    41   576   238     12     84    290     0     0   199    0.00   0.0   0.0   0.04   0.307   0.307   0.299   0.313   0.311   0.300   0.298   0.272   0.272
 2017 282    42   572   233     12     87    292     0     0   198    0.00   0.0   0.0   0.00   0.283   0.284   0.293   0.310   0.310   0.300   0.299   0.273   0.272
 2017 283    43   574   236     12     89    301     0     0   198    0.00   0.0   0.0   0.00   0.306   0.293   0.293   0.309   0.309   0.300   0.299   0.273   0.272
[...]
 2020 097   290   436    92     81    160   1130     0     0   200    0.29   0.0   0.0   0.00   0.252   0.250   0.269   0.286   0.287   0.199   0.174   0.194   0.201
 2020 098   291   467   124     84    160   1170     0     0   200    0.26   0.0   0.0   2.72   0.305   0.318   0.333   0.332   0.308   0.214   0.173   0.193   0.200
 2020 099   292   473   129     84    160   1179     0     0   200    0.29   0.0   0.0   0.00   0.309   0.320   0.325   0.334   0.320   0.238   0.173   0.193   0.200
 2020 100   293   488   144     84    160   1198     0     0   200    0.28   0.0   0.0   0.00   0.310   0.320   0.334   0.344   0.345   0.283   0.172   0.192   0.200
 2020 101   294   499   156     84    160   1213     0     0   200    0.29   0.0   0.0   0.00   0.313   0.321   0.335   0.345   0.345   0.314   0.198   0.192   0.199
 2020 102   295   513   169     84    160   1230     0     0   200    0.28   0.0   0.0   0.00   0.311   0.321   0.334   0.345   0.345   0.337   0.247   0.191   0.199
 2020 103   296   509   165     84    160   1230     0     0   200    0.21   0.0   0.0   0.00   0.263   0.283   0.301   0.314   0.315   0.311   0.288   0.218   0.198
 2020 104   297   504   160     84    160   1230     0     0   200    0.16   0.0   0.0   0.00   0.237   0.263   0.283   0.298   0.299   0.297   0.287   0.236   0.198
 2020 105   298   511   167     84    160   1243     0     0   200    0.30   0.0   0.0   0.00   0.306   0.291   0.288   0.299   0.298   0.295   0.290   0.236   0.197
 2020 106   299   517   173     84    160   1254     0     0   200    0.25   0.0   0.0   0.00   0.306   0.316   0.300   0.305   0.300   0.295   0.291   0.237   0.197
 2020 107   300   511   167     84    160   1254     0     0   200    0.19   0.0   0.0   0.00   0.255   0.278   0.282   0.294   0.292   0.289   0.289   0.253   0.196
 2020 108   301   505   162     84    160   1254     0     0   200    0.14   0.0   0.0   0.00   0.231   0.260   0.274   0.288   0.289   0.286   0.287   0.256   0.195
 2020 109   302   500   156     84    160   1254     0     0   200    0.11   0.0   0.0   0.00   0.214   0.252   0.269   0.284   0.285   0.284   0.285   0.255   0.195
 2020 110   303   498   154     84    160   1254     0     0   200    0.08   0.0   0.0   0.00   0.197   0.249   0.267   0.283   0.284   0.283   0.284   0.254   0.195
 2020 111   304   496   152     84    160   1254     0     0   200    0.06   0.0   0.0   0.00   0.183   0.246   0.266   0.282   0.283   0.282   0.283   0.254   0.195
 2020 112   305   494   151     84    160   1254     0     0   200    0.16   0.0   0.0   0.00   0.175   0.244   0.264   0.281   0.282   0.281   0.282   0.254   0.195
 2020 113   306   493   150     84    160   1255     0     0   200    0.27   0.0   0.0   0.00   0.172   0.241   0.262   0.280   0.281   0.281   0.282   0.254   0.195
 2020 114   307   492   148     84    160   1255     0     0   200    0.27   0.0   0.0   0.00   0.168   0.239   0.261   0.279   0.280   0.280   0.281   0.254   0.195
 2020 115   308   490   147     84    160   1256     0     0   200    0.29   0.0   0.0   0.00   0.169   0.236   0.259   0.277   0.279   0.279   0.280   0.254   0.195
 2020 116   309   491   148     84    160   1259     0     0   200    0.28   0.0   0.0   0.00   0.213   0.233   0.258   0.276   0.278   0.278   0.279   0.253   0.195
 2020 117   310   500   156     84    160   1272     0     0   200    0.29   0.0   0.0   0.00   0.309   0.276   0.270   0.273   0.275   0.276   0.277   0.252   0.194
 2020 118   311   523   179     85    160   1301     0     0   200    0.29   0.0   0.0   0.71   0.307   0.319   0.334   0.317   0.295   0.280   0.275   0.251   0.194
 2020 119   312   520   176     85    160   1304     0     0   200    0.29   0.0   0.0   0.00   0.287   0.293   0.314   0.321   0.307   0.290   0.276   0.250   0.193
 2020 120   313   543   200     85    160   1332     0     0   200    0.29   0.0   0.0   0.67   0.309   0.320   0.334   0.344   0.345   0.309   0.292   0.251   0.193
 2020 121   314   567   224     86    160   1362     0     0   200    0.29   0.0   0.0   1.10   0.310   0.320   0.334   0.344   0.345   0.344   0.333   0.269   0.193
 2020 122   315   563   220     86    160   1363     0     0   200    0.29   0.0   0.0   0.00   0.275   0.291   0.314   0.335   0.338   0.334   0.332   0.280   0.198
 2020 123   316   560   216     86    160   1365     0     0   200    0.29   0.0   0.0   0.00   0.263   0.275   0.298   0.322   0.329   0.325   0.328   0.285   0.208
 2020 124   317   557   213     86    160   1366     0     0   200    0.29   0.0   0.0   0.00   0.259   0.266   0.287   0.311   0.319   0.316   0.321   0.286   0.219
 2020 125   318   555   211     86    160   1369     0     0   200    0.29   0.0   0.0   0.00   0.266   0.263   0.281   0.302   0.309   0.309   0.314   0.285   0.229
 2020 126   319   550   207     86    160   1370     0     0   200    0.29   0.0   0.0   0.00   0.244   0.257   0.276   0.295   0.301   0.301   0.307   0.283   0.238
 2020 127   320   545   201     86    160   1370     0     0   200    0.29   0.0   0.0   0.00   0.230   0.250   0.270   0.288   0.293   0.295   0.300   0.280   0.243
 2020 128   321   541   198     86    160   1371     0     0   200    0.29   0.0   0.0   0.00   0.236   0.245   0.266   0.285   0.290   0.290   0.294   0.278   0.246
 2020 129   322   539   195     86    160   1374     0     0   200    0.29   0.0   0.0   0.00   0.252   0.248   0.261   0.282   0.287   0.287   0.289   0.276   0.248
 2020 130   323   564   220     87    160   1403     0     0   200    0.29   0.0   0.0   0.37   0.314   0.322   0.321   0.307   0.296   0.290   0.290   0.275   0.247
 2020 131   324   599   255     94    160   1450     0     0   200    0.29   0.0   0.0   7.06   0.309   0.319   0.334   0.344   0.345   0.344   0.317   0.280   0.252
 2020 132   325   595   252     94    160   1450     0     0   200    0.28   0.0   0.0   0.00   0.269   0.290   0.314   0.335   0.339   0.334   0.325   0.284   0.262
 2020 133   326   590   246     94    160   1450     0     0   200    0.24   0.0   0.0   0.00   0.243   0.270   0.296   0.321   0.329   0.325   0.324   0.286   0.273
 2020 134   327   569   225     94    176   1450     0     0   200    0.18   0.0   0.0   0.00   0.228   0.257   0.281   0.302   0.306   0.304   0.304   0.279   0.274
 2020 135   328   562   219     94    177   1451     0     0   200    0.19   0.0   0.0   0.00   0.214   0.249   0.273   0.293   0.298   0.298   0.300   0.279   0.276
 2020 136   329   559   215     94    178   1453     0     0   199    0.29   0.0   0.0   0.00   0.237   0.244   0.269   0.289   0.292   0.293   0.296   0.278   0.276
 2020 137   330   568   225     94    179   1468     0     0   200    0.27   0.0   0.0   0.00   0.309   0.300   0.284   0.292   0.291   0.290   0.292   0.276   0.276
 2020 138   331   566   223     94    179   1471     0     0   200    0.30   0.0   0.0   0.00   0.295   0.285   0.287   0.296   0.292   0.289   0.290   0.276   0.275
 2020 139   332   565   221     94    179   1475     0     0   200    0.29   0.0   0.0   0.00   0.293   0.278   0.286   0.297   0.293   0.289   0.289   0.276   0.274
 2020 140   333   567   223     94    179   1481     0     0   200    0.30   0.0   0.0   0.00   0.314   0.284   0.288   0.299   0.295   0.290   0.290   0.275   0.274
 2020 141   334   569   226     94    179   1488     0     0   200    0.29   0.0   0.0   0.00   0.309   0.298   0.293   0.302   0.297   0.291   0.290   0.275   0.273
 2020 142   335   578   235     94    179   1503     0     0   200    0.29   0.0   0.0   0.00   0.308   0.319   0.314   0.314   0.304   0.294   0.291   0.276   0.272
 2020 143   336   627   284    126    184   1592     0     0   197    0.29   0.0   0.0  31.75   0.311   0.320   0.334   0.344   0.345   0.344   0.345   0.294   0.283
 2020 144   337   619   275    126    191   1595     0     0   195    0.29   0.0   0.0   0.00   0.298   0.296   0.316   0.336   0.339   0.334   0.338   0.294   0.288
 2020 145   338   627   283    126    199   1615     0     0   194    0.29   0.0   0.0   0.00   0.315   0.322   0.335   0.345   0.345   0.332   0.335   0.293   0.290
 2020 146   339   623   280    126    207   1624     0     0   194    0.29   0.0   0.0   0.00   0.312   0.320   0.329   0.343   0.343   0.329   0.331   0.292   0.291
 2020 147   340   614   271    126    215   1628     0     0   194    0.29   0.0   0.0   0.00   0.307   0.298   0.314   0.334   0.337   0.326   0.328   0.291   0.290
 2020 148   341   607   264    126    223   1632     0     0   194    0.29   0.0   0.0   0.00   0.311   0.289   0.304   0.325   0.330   0.322   0.324   0.289   0.290
 2020 149   342   596   252    126    230   1633     0     0   195    0.29   0.0   0.0   0.00   0.271   0.276   0.294   0.315   0.322   0.316   0.319   0.288   0.288
 2020 150   343   585   242    126    236   1633     0     0   195    0.28   0.0   0.0   0.00   0.247   0.264   0.285   0.306   0.313   0.310   0.314   0.286   0.287
 2020 151   344   576   232    126    241   1634     0     0   196    0.30   0.0   0.0   0.00   0.240   0.256   0.277   0.298   0.304   0.303   0.308   0.283   0.285
 2020 152   345   569   225    126    246   1635     0     0   197    0.29   0.0   0.0   0.00   0.244   0.253   0.274   0.291   0.296   0.297   0.302   0.281   0.283
 2020 153   346   562   218    126    249   1636     0     0   198    0.30   0.0   0.0   0.00   0.241   0.251   0.270   0.288   0.290   0.292   0.296   0.279   0.281
 2020 154   347   557   214    126    251   1638     0     0   199    0.29   0.0   0.0   0.00   0.252   0.253   0.266   0.285   0.288   0.289   0.292   0.277   0.278
 2020 155   348   555   211    126    252   1641     0     0   200    0.30   0.0   0.0   0.00   0.266   0.256   0.265   0.281   0.285   0.286   0.289   0.276   0.276
 2020 156   349   553   210    126    252   1644     0     0   200    0.29   0.0   0.0   0.00   0.271   0.260   0.267   0.279   0.283   0.284   0.288   0.275   0.275
 2020 157   350   557   213    126    252   1651     0     0   200    0.29   0.0   0.0   0.00   0.312   0.276   0.275   0.279   0.280   0.283   0.286   0.274   0.275
 2020 158   351   561   217    126    252   1659     0     0   200    0.29   0.0   0.0   0.00   0.314   0.297   0.287   0.289   0.280   0.281   0.285   0.273   0.274
 2020 159   352   567   224    126    252   1671     0     0   200    0.29   0.0   0.0   0.00   0.307   0.319   0.304   0.303   0.290   0.281   0.283   0.272   0.273
 2020 160   353   571   227    126    252   1679     0     0   200    0.29   0.0   0.0   0.00   0.309   0.317   0.308   0.311   0.300   0.288   0.281   0.271   0.272
 2020 161   354   595   251    126    252   1708     0     0   200    0.29   0.0   0.0   0.87   0.315   0.322   0.335   0.345   0.345   0.308   0.294   0.273   0.272
 2020 162   355   592   248    126    252   1710     0     0   200    0.29   0.0   0.0   0.00   0.288   0.295   0.315   0.336   0.339   0.316   0.304   0.277   0.274
 2020 163   356   599   256    126    253   1724     0     0   199    0.29   0.0   0.0   0.00   0.311   0.320   0.319   0.333   0.335   0.318   0.310   0.280   0.276
 2020 164   357   604   261    126    255   1734     0     0   198    0.29   0.0   0.0   0.00   0.315   0.322   0.325   0.335   0.334   0.319   0.314   0.282   0.279
 2020 165   358   602   258    126    258   1740     0     0   198    0.29   0.0   0.0   0.00   0.310   0.309   0.315   0.331   0.331   0.318   0.315   0.283   0.281
 2020 166   359   599   255    126    262   1746     0     0   197    0.29   0.0   0.0   0.00   0.310   0.300   0.307   0.325   0.327   0.316   0.315   0.284   0.282
 2020 167   360   590   246    126    266   1746     0     0   197    0.29   0.0   0.0   0.00   0.270   0.280   0.297   0.317   0.321   0.313   0.313   0.284   0.283
 2020 168   361   581   238    126    270   1747     0     0   197    0.29   0.0   0.0   0.00   0.247   0.266   0.287   0.308   0.313   0.308   0.310   0.283   0.282
 2020 169   362   575   232    126    274   1749     0     0   197    0.29   0.0   0.0   0.00   0.257   0.261   0.280   0.300   0.305   0.303   0.306   0.282   0.282
 2020 170   363   572   228    126    277   1752     0     0   198    0.29   0.0   0.0   0.00   0.279   0.264   0.278   0.295   0.299   0.299   0.301   0.280   0.281
 2020 171   364   567   224    126    280   1755     0     0   198    0.29   0.0   0.0   0.00   0.275   0.264   0.277   0.292   0.295   0.294   0.297   0.279   0.280
 2020 172   365   561   217    126    282   1755     0     0   199    0.29   0.0   0.0   0.00   0.250   0.258   0.274   0.289   0.291   0.291   0.293   0.277   0.278
 2020 173   366   556   213    126    283   1756     0     0   200    0.30   0.0   0.0   0.00   0.242   0.254   0.271   0.286   0.288   0.288   0.289   0.277   0.276
 2020 174   367   553   209    126    283   1756     0     0   200    0.30   0.0   0.0   0.00   0.239   0.250   0.268   0.283   0.285   0.287   0.287   0.276   0.275
 2020 175   368   549   206    126    283   1758     0     0   200    0.30   0.0   0.0   0.00   0.241   0.248   0.263   0.280   0.282   0.284   0.285   0.275   0.274
 2020 176   369   546   203    126    283   1758     0     0   200    0.30   0.0   0.0   0.00   0.227   0.244   0.260   0.278   0.281   0.283   0.284   0.275   0.274
 2020 177   370   545   201    126    283   1759     0     0   200    0.30   0.0   0.0   0.00   0.225   0.241   0.258   0.276   0.279   0.282   0.283   0.275   0.274
 2020 178   371   544   200    126    283   1761     0     0   200    0.30   0.0   0.0   0.00   0.236   0.242   0.256   0.275   0.278   0.281   0.282   0.275   0.274
 2020 179   372   542   199    126    283   1764     0     0   200    0.30   0.0   0.0   0.00   0.259   0.247   0.252   0.272   0.275   0.278   0.280   0.274   0.273
 2020 180   373   543   199    126    283   1768     0     0   200    0.30   0.0   0.0   0.00   0.282   0.258   0.252   0.270   0.273   0.277   0.278   0.273   0.272
 2020 181   374   548   204    126    283   1776     0     0   200    0.30   0.0   0.0   0.00   0.315   0.283   0.269   0.267   0.271   0.275   0.277   0.272   0.272
 2020 182   375   545   201    126    283   1778     0     0   200    0.30   0.0   0.0   0.00   0.285   0.275   0.276   0.269   0.269   0.273   0.275   0.272   0.271
 2020 183   376   540   197    126    283   1778     0     0   200    0.30   0.0   0.0   0.00   0.255   0.265   0.276   0.270   0.266   0.271   0.273   0.271   0.271
 2020 184   377   535   192    126    283   1778     0     0   200    0.30   0.0   0.0   0.00   0.237   0.255   0.272   0.268   0.262   0.268   0.271   0.269   0.270
 2020 185   378   541   197    126    283   1788     0     0   200    0.30   0.0   0.0   0.00   0.314   0.276   0.278   0.271   0.260   0.267   0.269   0.269   0.269
 2020 186   379   544   200    126    283   1793     0     0   200    0.30   0.0   0.0   0.00   0.318   0.287   0.286   0.282   0.259   0.265   0.268   0.268   0.269
 2020 187   380   592   249    147    283   1866     0     0   200    0.30   0.0   0.0  20.34   0.312   0.321   0.334   0.344   0.345   0.318   0.292   0.270   0.268
 2020 188   381   623   279    151    285   1908     0     0   199    0.30   0.0   0.0   4.56   0.314   0.321   0.334   0.344   0.345   0.344   0.345   0.289   0.278
 2020 189   382   665   321    207    304   2029     0     0   184    0.30   0.0   0.0  55.83   0.315   0.322   0.335   0.345   0.345   0.345   0.345   0.337   0.314
 2020 190   383   674   330    217    334   2083     0     0   176    0.30   0.0   0.0  10.08   0.313   0.320   0.334   0.344   0.344   0.344   0.344   0.337   0.334
 2020 191   384   675   331    221    365   2122     0     0   176    0.30   0.0   0.0   3.51   0.314   0.321   0.334   0.345   0.345   0.344   0.345   0.336   0.335
 2020 192   385   652   309    221    390   2128     0     0   180    0.30   0.0   0.0   0.00   0.316   0.313   0.322   0.339   0.341   0.335   0.339   0.315   0.325
 2020 193   386   634   291    221    409   2134     0     0   184    0.30   0.0   0.0   0.00   0.313   0.308   0.313   0.332   0.336   0.328   0.333   0.303   0.314
 2020 194   387   627   283    221    425   2144     0     0   188    0.30   0.0   0.0   0.00   0.320   0.324   0.317   0.331   0.333   0.324   0.328   0.297   0.305
 2020 195   388   613   269    221    437   2146     0     0   191    0.30   0.0   0.0   0.00   0.297   0.298   0.308   0.326   0.328   0.320   0.323   0.292   0.298
 2020 196   389   609   266    221    446   2156     0     0   193    0.30   0.0   0.0   0.00   0.316   0.314   0.309   0.323   0.325   0.316   0.319   0.289   0.294
 2020 197   390   613   270    221    454   2171     0     0   194    0.30   0.0   0.0   0.00   0.317   0.323   0.334   0.335   0.329   0.317   0.317   0.288   0.290
 2020 198   391   618   275    221    461   2187     0     0   195    0.30   0.0   0.0   0.00   0.315   0.322   0.335   0.345   0.345   0.324   0.320   0.287   0.289
 2020 199   392   629   285    221    469   2208     0     0   194    0.30   0.0   0.0   0.06   0.316   0.322   0.335   0.345   0.345   0.345   0.339   0.291   0.289
 2020 200   393   628   284    221    477   2219     0     0   194    0.30   0.0   0.0   0.00   0.316   0.322   0.334   0.345   0.345   0.336   0.337   0.292   0.291
 2020 201   394   619   275    221    485   2223     0     0   194    0.30   0.0   0.0   0.00   0.309   0.300   0.317   0.337   0.340   0.330   0.333   0.292   0.291
 2020 202   395   622   278    221    493   2238     0     0   194    0.30   0.0   0.0   0.00   0.315   0.321   0.332   0.340   0.339   0.327   0.329   0.291   0.291
 2020 203   396   635   291    222    503   2266     0     0   192    0.30   0.0   0.0   0.76   0.314   0.321   0.334   0.344   0.345   0.344   0.344   0.297   0.294
 2020 204   397   638   294    222    514   2284     0     0   191    0.30   0.0   0.0   0.00   0.315   0.321   0.335   0.345   0.345   0.344   0.345   0.300   0.297
 2020 205   398   668   324    251    537   2371     0     0   182    0.30   0.0   0.0  29.77   0.314   0.321   0.334   0.344   0.345   0.344   0.345   0.337   0.320
 2020 206   399   667   323    252    562   2399     0     0   180    0.30   0.0   0.0   0.87   0.317   0.322   0.335   0.345   0.345   0.345   0.345   0.329   0.324
 2020 207   400   648   305    252    584   2407     0     0   183    0.30   0.0   0.0   0.00   0.315   0.319   0.324   0.341   0.342   0.335   0.339   0.312   0.318
 2020 208   401   638   295    252    602   2418     0     0   186    0.30   0.0   0.0   0.00   0.315   0.321   0.330   0.342   0.341   0.330   0.334   0.302   0.310
 2020 209   402   655   312    258    621   2463     0     0   185    0.30   0.0   0.0   5.71   0.319   0.323   0.336   0.346   0.346   0.345   0.345   0.317   0.313
 2020 210   403   634   290    258    638   2463     0     0   186    0.30   0.0   0.0   0.00   0.280   0.294   0.315   0.336   0.340   0.334   0.339   0.305   0.309
 2020 211   404   617   273    258    653   2465     0     0   189    0.30   0.0   0.0   0.00   0.273   0.278   0.300   0.324   0.331   0.326   0.331   0.298   0.303
 2020 212   405   604   261    258    664   2468     0     0   191    0.30   0.0   0.0   0.00   0.278   0.272   0.291   0.314   0.321   0.318   0.324   0.293   0.298
 2020 213   406   605   261    258    674   2482     0     0   193    0.30   0.0   0.0   0.00   0.315   0.316   0.301   0.314   0.316   0.313   0.318   0.290   0.294
 2020 214   407   594   250    258    682   2482     0     0   194    0.28   0.0   0.0   0.00   0.276   0.290   0.298   0.312   0.313   0.308   0.312   0.287   0.290
 2020 215   408   586   242    258    688   2484     0     0   195    0.30   0.0   0.0   0.00   0.276   0.277   0.291   0.308   0.309   0.305   0.308   0.284   0.287
 2020 216   409   588   244    258    693   2493     0     0   196    0.29   0.0   0.0   0.00   0.323   0.295   0.295   0.308   0.308   0.304   0.305   0.283   0.285
