*SOIL TEMPERATURE OUTPUT FILE (DAILY)

*DSSAT Cropping System Model Ver. 4.8.0.019 -develop  APR 08, 2023 12:34:37

*RUN   1        : IITA-TMS-IBA000070        CSYCA048 UYAB1901    1
 MODEL          : CSYCA048 - Cassava
 EXPERIMENT     : UYAB1901 CS UYT_GXE
 DATA PATH      :
 TREATMENT  1   : IITA-TMS-IBA000070        CSYCA048
  
! TAV  =    26.3
! TAMP =     5.6
!               Temperature (oC) by soil depth (cm):
!               Surface     0-5    5-15   15-30   30-45   45-60   60-90  90-120 120-150 150-180 180-200
@YEAR DOY   DAS    TS0D    TS1D    TS2D    TS3D    TS4D    TS5D    TS6D    TS7D    TS8D    TS9D    TS10
 2019 168     1    31.7    31.7    31.5    31.2    30.8    30.5    30.0    29.5    29.0    28.6    28.2
 2019 169     2    32.2    32.1    31.9    31.6    31.2    30.9    30.4    29.8    29.2    28.8    28.4
 2019 170     3    32.4    32.4    32.2    31.8    31.4    31.1    30.6    30.0    29.4    28.9    28.6
 2019 171     4    31.9    31.8    31.6    31.3    31.0    30.6    30.2    29.6    29.1    28.6    28.3
 2019 172     5    31.2    31.1    31.0    30.7    30.4    30.1    29.6    29.1    28.7    28.3    28.0
 2019 173     6    30.1    30.1    29.9    29.7    29.4    29.2    28.9    28.4    28.1    27.7    27.5
 2019 174     7    29.2    29.2    29.1    28.9    28.7    28.5    28.2    27.8    27.5    27.3    27.1
 2019 175     8    27.9    27.9    27.8    27.7    27.5    27.4    27.2    26.9    26.7    26.5    26.4
 2019 176     9    27.9    27.8    27.8    27.6    27.5    27.4    27.2    26.9    26.7    26.6    26.4
 2019 177    10    27.7    27.7    27.6    27.5    27.4    27.2    27.1    26.8    26.6    26.5    26.3
 2019 178    11    27.4    27.4    27.3    27.2    27.1    27.0    26.9    26.7    26.5    26.3    26.2
 2019 179    12    27.1    27.0    27.0    26.9    26.8    26.7    26.6    26.4    26.3    26.2    26.1
 2019 180    13    27.7    27.7    27.6    27.5    27.4    27.3    27.1    26.9    26.7    26.5    26.4
 2019 181    14    27.9    27.9    27.8    27.7    27.6    27.4    27.3    27.0    26.8    26.7    26.5
 2019 182    15    28.1    28.1    28.0    27.9    27.7    27.6    27.4    27.2    27.0    26.8    26.6
 2019 183    16    28.4    28.4    28.3    28.2    28.0    27.9    27.7    27.4    27.2    27.0    26.8
 2019 184    17    28.9    28.9    28.8    28.6    28.4    28.3    28.0    27.7    27.5    27.2    27.0
 2019 185    18    28.5    28.5    28.4    28.3    28.1    28.0    27.8    27.5    27.3    27.0    26.9
 2019 186    19    28.3    28.2    28.2    28.1    27.9    27.8    27.6    27.3    27.1    26.9    26.8
 2019 187    20    28.4    28.4    28.3    28.2    28.1    27.9    27.7    27.5    27.2    27.0    26.9
 2019 188    21    28.6    28.6    28.5    28.4    28.2    28.1    27.9    27.6    27.3    27.1    27.0
 2019 189    22    28.0    27.9    27.9    27.8    27.7    27.5    27.4    27.2    27.0    26.8    26.6
 2019 190    23    27.6    27.6    27.6    27.5    27.4    27.3    27.1    27.0    26.8    26.6    26.5
 2019 191    24    28.0    28.0    27.9    27.8    27.7    27.6    27.4    27.2    27.0    26.8    26.7
 2019 192    25    27.4    27.3    27.3    27.2    27.1    27.1    26.9    26.8    26.6    26.5    26.4
 2019 193    26    26.9    26.9    26.8    26.8    26.7    26.7    26.6    26.5    26.4    26.2    26.2
 2019 194    27    27.1    27.1    27.1    27.0    26.9    26.9    26.8    26.6    26.5    26.4    26.3
 2019 195    28    27.7    27.7    27.6    27.6    27.5    27.4    27.2    27.1    26.9    26.7    26.6
 2019 196    29    27.5    27.5    27.5    27.4    27.3    27.3    27.1    27.0    26.8    26.7    26.6
 2019 197    30    27.9    27.9    27.8    27.7    27.6    27.5    27.4    27.2    27.0    26.9    26.7
 2019 198    31    28.5    28.4    28.4    28.3    28.2    28.0    27.9    27.6    27.4    27.2    27.1
 2019 199    32    28.5    28.4    28.4    28.3    28.2    28.0    27.9    27.6    27.4    27.2    27.1
 2019 200    33    27.5    27.5    27.5    27.4    27.3    27.2    27.1    27.0    26.8    26.7    26.6
 2019 201    34    27.1    27.1    27.1    27.0    27.0    26.9    26.9    26.7    26.6    26.5    26.4
 2019 202    35    27.3    27.3    27.3    27.2    27.2    27.1    27.0    26.9    26.8    26.6    26.5
 2019 203    36    26.6    26.6    26.6    26.6    26.6    26.6    26.5    26.4    26.4    26.3    26.2
 2019 204    37    26.8    26.8    26.8    26.7    26.7    26.7    26.6    26.5    26.5    26.4    26.3
 2019 205    38    27.6    27.6    27.6    27.5    27.4    27.4    27.3    27.1    27.0    26.8    26.7
 2019 206    39    27.6    27.6    27.6    27.5    27.5    27.4    27.3    27.1    27.0    26.9    26.7
 2019 207    40    27.3    27.3    27.3    27.3    27.2    27.2    27.1    27.0    26.8    26.7    26.6
 2019 208    41    27.6    27.6    27.6    27.5    27.5    27.4    27.3    27.2    27.0    26.9    26.8
 2019 209    42    27.2    27.2    27.2    27.2    27.1    27.1    27.0    26.9    26.8    26.7    26.6
 2019 210    43    26.6    26.6    26.6    26.6    26.6    26.6    26.6    26.5    26.5    26.4    26.3
 2019 211    44    26.6    26.6    26.6    26.6    26.6    26.6    26.6    26.5    26.4    26.4    26.3
 2019 212    45    26.7    26.7    26.7    26.7    26.7    26.7    26.7    26.6    26.5    26.5    26.4
 2019 213    46    26.7    26.7    26.7    26.7    26.7    26.7    26.7    26.6    26.6    26.5    26.4
 2019 214    47    26.8    26.8    26.8    26.8    26.8    26.7    26.7    26.7    26.6    26.5    26.5
 2019 215    48    26.9    26.9    26.9    26.9    26.9    26.9    26.9    26.8    26.7    26.6    26.6
 2019 216    49    26.9    26.9    26.9    26.9    26.9    26.9    26.8    26.8    26.7    26.6    26.5
 2019 217    50    26.2    26.2    26.2    26.2    26.2    26.3    26.3    26.3    26.3    26.2    26.2
 2019 218    51    25.7    25.7    25.7    25.8    25.8    25.9    25.9    26.0    26.0    26.0    26.0
 2019 219    52    25.4    25.4    25.5    25.5    25.6    25.7    25.7    25.8    25.8    25.8    25.8
 2019 220    53    25.3    25.3    25.3    25.4    25.5    25.5    25.6    25.7    25.7    25.8    25.8
 2019 221    54    25.1    25.1    25.2    25.2    25.3    25.4    25.5    25.6    25.6    25.7    25.7
 2019 222    55    25.5    25.5    25.6    25.6    25.7    25.8    25.8    25.9    25.9    25.9    26.0
 2019 223    56    25.9    25.9    25.9    26.0    26.0    26.1    26.1    26.1    26.2    26.2    26.1
 2019 224    57    26.0    26.0    26.0    26.1    26.1    26.1    26.2    26.2    26.2    26.2    26.2
 2019 225    58    26.4    26.4    26.4    26.5    26.5    26.5    26.5    26.5    26.5    26.5    26.5
 2019 226    59    26.6    26.6    26.7    26.7    26.7    26.7    26.7    26.7    26.7    26.6    26.6
 2019 227    60    26.4    26.5    26.5    26.5    26.6    26.6    26.6    26.6    26.6    26.5    26.5
 2019 228    61    26.4    26.4    26.4    26.5    26.5    26.5    26.6    26.6    26.5    26.5    26.5
 2019 229    62    26.2    26.2    26.3    26.3    26.4    26.4    26.5    26.5    26.5    26.5    26.4
 2019 230    63    26.1    26.1    26.2    26.2    26.3    26.3    26.4    26.4    26.4    26.4    26.4
 2019 231    64    25.4    25.5    25.5    25.6    25.7    25.8    25.9    26.0    26.0    26.0    26.1
 2019 232    65    25.7    25.7    25.7    25.8    25.9    26.0    26.0    26.1    26.2    26.2    26.2
 2019 233    66    25.6    25.6    25.6    25.7    25.8    25.9    26.0    26.1    26.1    26.1    26.2
 2019 234    67    26.0    26.0    26.1    26.1    26.2    26.3    26.3    26.4    26.4    26.4    26.4
 2019 235    68    25.8    25.8    25.8    25.9    26.0    26.0    26.1    26.2    26.3    26.3    26.3
 2019 236    69    26.0    26.0    26.0    26.1    26.2    26.2    26.3    26.4    26.4    26.4    26.4
 2019 237    70    25.9    26.0    26.0    26.1    26.1    26.2    26.3    26.4    26.4    26.4    26.4
 2019 238    71    25.9    25.9    26.0    26.1    26.2    26.2    26.3    26.4    26.4    26.4    26.4
 2019 239    72    25.8    25.8    25.8    25.9    26.0    26.1    26.2    26.2    26.3    26.3    26.3
 2019 240    73    25.9    25.9    25.9    26.0    26.1    26.2    26.3    26.3    26.4    26.4    26.4
 2019 241    74    26.3    26.3    26.3    26.4    26.5    26.5    26.6    26.6    26.7    26.7    26.6
 2019 242    75    26.7    26.7    26.7    26.8    26.8    26.9    26.9    26.9    26.9    26.9    26.9
 2019 243    76    27.1    27.1    27.1    27.2    27.2    27.2    27.2    27.2    27.2    27.2    27.1
 2019 244    77    27.1    27.1    27.1    27.2    27.2    27.2    27.3    27.2    27.2    27.2    27.1
 2019 245    78    27.3    27.3    27.4    27.4    27.4    27.4    27.4    27.4    27.4    27.3    27.2
 2019 246    79    27.7    27.7    27.7    27.7    27.7    27.7    27.7    27.7    27.6    27.5    27.4
 2019 247    80    27.3    27.3    27.4    27.4    27.4    27.5    27.5    27.4    27.4    27.3    27.3
 2019 248    81    27.2    27.2    27.3    27.3    27.3    27.4    27.4    27.4    27.3    27.3    27.2
 2019 249    82    27.5    27.5    27.5    27.6    27.6    27.6    27.6    27.6    27.5    27.5    27.4
 2019 250    83    27.6    27.6    27.6    27.6    27.7    27.7    27.7    27.6    27.6    27.5    27.4
 2019 251    84    26.9    27.0    27.0    27.1    27.1    27.1    27.2    27.2    27.2    27.2    27.1
 2019 252    85    27.1    27.1    27.1    27.2    27.2    27.2    27.3    27.3    27.3    27.2    27.2
 2019 253    86    27.0    27.0    27.1    27.1    27.2    27.2    27.2    27.3    27.3    27.2    27.2
 2019 254    87    26.6    26.7    26.7    26.8    26.8    26.9    27.0    27.0    27.0    27.0    27.0
 2019 255    88    26.7    26.7    26.7    26.8    26.9    26.9    27.0    27.1    27.1    27.1    27.0
 2019 256    89    27.0    27.0    27.0    27.1    27.2    27.2    27.3    27.3    27.3    27.3    27.2
 2019 257    90    26.9    26.9    27.0    27.1    27.1    27.2    27.2    27.3    27.3    27.2    27.2
 2019 258    91    26.7    26.7    26.8    26.8    26.9    27.0    27.0    27.1    27.1    27.1    27.1
 2019 259    92    27.1    27.1    27.1    27.2    27.2    27.3    27.3    27.4    27.4    27.4    27.3
 2019 260    93    27.1    27.1    27.2    27.2    27.3    27.3    27.4    27.4    27.4    27.4    27.4
 2019 261    94    26.9    26.9    26.9    27.0    27.1    27.1    27.2    27.2    27.3    27.3    27.2
 2019 262    95    27.0    27.1    27.1    27.2    27.2    27.3    27.3    27.4    27.4    27.4    27.3
 2019 263    96    27.3    27.3    27.3    27.4    27.4    27.5    27.5    27.5    27.5    27.5    27.5
 2019 264    97    27.4    27.4    27.4    27.5    27.5    27.6    27.6    27.6    27.6    27.6    27.5
 2019 265    98    27.4    27.4    27.5    27.5    27.6    27.6    27.6    27.6    27.6    27.6    27.6
 2019 266    99    27.9    27.9    27.9    27.9    28.0    28.0    28.0    28.0    27.9    27.9    27.8
 2019 267   100    28.1    28.1    28.1    28.1    28.2    28.2    28.2    28.1    28.1    28.0    27.9
 2019 268   101    28.4    28.4    28.4    28.4    28.4    28.4    28.4    28.4    28.3    28.2    28.1
 2019 269   102    27.9    28.0    28.0    28.0    28.0    28.1    28.1    28.0    28.0    27.9    27.9
 2019 270   103    27.6    27.6    27.6    27.7    27.7    27.8    27.8    27.8    27.8    27.7    27.7
 2019 271   104    27.6    27.6    27.6    27.7    27.7    27.7    27.8    27.8    27.8    27.7    27.7
 2019 272   105    27.3    27.3    27.4    27.4    27.5    27.5    27.6    27.6    27.6    27.6    27.6
 2019 273   106    26.8    26.8    26.9    27.0    27.1    27.1    27.2    27.3    27.3    27.3    27.3
 2019 274   107    26.9    26.9    26.9    27.0    27.1    27.2    27.3    27.3    27.4    27.4    27.4
 2019 275   108    26.9    26.9    26.9    27.0    27.1    27.2    27.2    27.3    27.4    27.4    27.4
 2019 276   109    26.9    26.9    27.0    27.0    27.1    27.2    27.3    27.4    27.4    27.4    27.4
 2019 277   110    26.6    26.6    26.7    26.8    26.9    27.0    27.1    27.2    27.2    27.3    27.3
 2019 278   111    26.9    26.9    27.0    27.0    27.1    27.2    27.3    27.4    27.4    27.4    27.4
 2019 279   112    27.0    27.0    27.1    27.2    27.2    27.3    27.4    27.5    27.5    27.5    27.5
 2019 280   113    26.7    26.7    26.7    26.8    26.9    27.0    27.1    27.2    27.3    27.3    27.3
 2019 281   114    26.2    26.2    26.3    26.4    26.5    26.6    26.8    26.9    27.0    27.1    27.1
 2019 282   115    26.3    26.3    26.4    26.5    26.6    26.7    26.9    27.0    27.1    27.1    27.1
 2019 283   116    26.3    26.3    26.4    26.5    26.6    26.7    26.8    27.0    27.0    27.1    27.1
 2019 284   117    26.5    26.5    26.6    26.7    26.8    26.9    27.0    27.1    27.2    27.2    27.2
 2019 285   118    26.9    26.9    26.9    27.0    27.1    27.2    27.3    27.4    27.4    27.4    27.4
 2019 286   119    27.3    27.3    27.3    27.4    27.5    27.5    27.6    27.6    27.7    27.7    27.7
 2019 287   120    27.8    27.8    27.8    27.9    27.9    28.0    28.0    28.0    28.0    28.0    27.9
 2019 288   121    27.7    27.8    27.8    27.8    27.9    27.9    28.0    28.0    28.0    28.0    27.9
 2019 289   122    27.5    27.5    27.5    27.6    27.6    27.7    27.7    27.8    27.8    27.8    27.8
 2019 290   123    27.5    27.5    27.5    27.6    27.7    27.7    27.8    27.8    27.8    27.8    27.8
 2019 291   124    27.2    27.2    27.3    27.3    27.4    27.5    27.6    27.6    27.7    27.7    27.7
 2019 292   125    26.5    26.5    26.6    26.7    26.8    26.9    27.0    27.1    27.2    27.3    27.3
 2019 293   126    26.0    26.0    26.1    26.2    26.4    26.5    26.6    26.8    26.9    27.0    27.1
 2019 294   127    26.4    26.4    26.4    26.5    26.7    26.8    26.9    27.0    27.1    27.2    27.2
 2019 295   128    26.8    26.8    26.9    27.0    27.1    27.2    27.3    27.4    27.4    27.5    27.5
 2019 296   129    27.3    27.3    27.3    27.4    27.5    27.5    27.6    27.7    27.7    27.7    27.7
 2019 297   130    27.3    27.3    27.4    27.5    27.5    27.6    27.7    27.7    27.8    27.8    27.7
 2019 298   131    27.8    27.9    27.9    27.9    28.0    28.0    28.0    28.1    28.1    28.1    28.0
 2019 299   132    27.6    27.6    27.6    27.7    27.8    27.8    27.9    27.9    27.9    27.9    27.9
 2019 300   133    26.9    26.9    26.9    27.0    27.1    27.2    27.3    27.4    27.5    27.5    27.5
 2019 301   134    26.2    26.3    26.3    26.4    26.5    26.6    26.8    26.9    27.0    27.1    27.2
 2019 302   135    26.0    26.1    26.1    26.3    26.4    26.5    26.6    26.8    26.9    27.0    27.1
 2019 303   136    26.3    26.3    26.4    26.5    26.6    26.7    26.9    27.0    27.1    27.2    27.2
 2019 304   137    26.6    26.6    26.6    26.7    26.8    26.9    27.0    27.2    27.3    27.3    27.4
 2019 305   138    27.3    27.3    27.3    27.4    27.5    27.5    27.6    27.7    27.7    27.7    27.7
 2019 306   139    27.5    27.5    27.5    27.6    27.7    27.7    27.8    27.8    27.9    27.9    27.9
 2019 307   140    28.3    28.4    28.4    28.4    28.4    28.4    28.4    28.4    28.4    28.3    28.3
 2019 308   141    28.7    28.7    28.7    28.7    28.7    28.7    28.7    28.6    28.6    28.5    28.5
 2019 309   142    29.2    29.2    29.2    29.2    29.2    29.2    29.1    29.0    28.9    28.8    28.7
 2019 310   143    29.6    29.6    29.6    29.6    29.5    29.5    29.4    29.3    29.1    29.0    28.9
 2019 311   144    30.4    30.3    30.3    30.2    30.1    30.1    29.9    29.8    29.6    29.4    29.2
 2019 312   145    30.6    30.6    30.5    30.5    30.4    30.3    30.1    29.9    29.7    29.5    29.3
 2019 313   146    30.5    30.5    30.5    30.4    30.3    30.2    30.0    29.9    29.6    29.4    29.3
 2019 314   147    30.4    30.3    30.3    30.2    30.1    30.0    29.9    29.7    29.5    29.3    29.2
 2019 315   148    30.1    30.1    30.0    30.0    29.9    29.8    29.7    29.5    29.4    29.2    29.0
 2019 316   149    29.7    29.7    29.7    29.6    29.6    29.5    29.4    29.3    29.2    29.0    28.9
 2019 317   150    29.3    29.3    29.3    29.2    29.2    29.2    29.1    29.0    28.9    28.8    28.7
 2019 318   151    29.2    29.2    29.2    29.2    29.1    29.1    29.0    29.0    28.9    28.8    28.7
 2019 319   152    29.2    29.2    29.2    29.2    29.2    29.1    29.1    29.0    28.9    28.8    28.7
 2019 320   153    29.4    29.4    29.4    29.3    29.3    29.3    29.2    29.1    29.0    28.9    28.8
 2019 321   154    29.9    29.9    29.8    29.8    29.7    29.6    29.5    29.4    29.2    29.1    29.0
 2019 322   155    30.3    30.3    30.2    30.2    30.1    30.0    29.8    29.7    29.5    29.3    29.1
 2019 323   156    30.5    30.5    30.5    30.4    30.3    30.2    30.0    29.8    29.6    29.4    29.2
 2019 324   157    30.7    30.7    30.6    30.5    30.4    30.3    30.1    29.9    29.7    29.5    29.3
 2019 325   158    30.6    30.6    30.5    30.4    30.3    30.2    30.0    29.8    29.6    29.4    29.2
 2019 326   159    30.2    30.2    30.1    30.0    29.9    29.9    29.7    29.5    29.4    29.2    29.0
 2019 327   160    30.3    30.3    30.2    30.1    30.0    29.9    29.8    29.6    29.4    29.2    29.1
 2019 328   161    30.3    30.2    30.2    30.1    30.0    29.9    29.8    29.6    29.4    29.2    29.1
 2019 329   162    30.3    30.2    30.2    30.1    30.0    29.9    29.8    29.6    29.4    29.2    29.0
 2019 330   163    30.5    30.5    30.4    30.3    30.2    30.1    29.9    29.7    29.5    29.3    29.2
 2019 331   164    30.8    30.8    30.7    30.6    30.5    30.4    30.2    29.9    29.7    29.5    29.3
 2019 332   165    30.7    30.6    30.6    30.5    30.3    30.2    30.0    29.8    29.6    29.4    29.2
 2019 333   166    30.5    30.5    30.4    30.3    30.2    30.1    29.9    29.7    29.5    29.3    29.1
 2019 334   167    30.5    30.4    30.4    30.3    30.2    30.0    29.9    29.7    29.5    29.3    29.1
 2019 335   168    30.2    30.1    30.1    30.0    29.9    29.8    29.6    29.5    29.3    29.1    28.9
 2019 336   169    30.0    29.9    29.9    29.8    29.7    29.6    29.5    29.3    29.1    29.0    28.8
 2019 337   170    29.7    29.7    29.6    29.6    29.5    29.4    29.3    29.1    29.0    28.8    28.7
 2019 338   171    29.5    29.5    29.5    29.4    29.3    29.3    29.1    29.0    28.9    28.7    28.6
 2019 339   172    29.4    29.4    29.4    29.3    29.2    29.2    29.1    28.9    28.8    28.7    28.6
 2019 340   173    29.5    29.5    29.4    29.3    29.3    29.2    29.1    29.0    28.8    28.7    28.6
 2019 341   174    29.6    29.6    29.5    29.5    29.4    29.3    29.2    29.0    28.9    28.8    28.6
 2019 342   175    29.9    29.9    29.8    29.7    29.6    29.5    29.4    29.2    29.1    28.9    28.8
 2019 343   176    30.0    30.0    30.0    29.9    29.7    29.6    29.5    29.3    29.1    28.9    28.8
 2019 344   177    29.8    29.8    29.7    29.6    29.5    29.5    29.3    29.1    29.0    28.8    28.7
 2019 345   178    29.8    29.8    29.7    29.6    29.5    29.4    29.3    29.1    29.0    28.8    28.7
 2019 346   179    29.7    29.7    29.6    29.6    29.5    29.4    29.2    29.1    28.9    28.8    28.6
 2019 347   180    29.6    29.6    29.5    29.5    29.4    29.3    29.1    29.0    28.8    28.7    28.6
 2019 348   181    29.5    29.5    29.4    29.3    29.2    29.2    29.0    28.9    28.8    28.6    28.5
 2019 349   182    29.6    29.6    29.5    29.4    29.3    29.2    29.1    28.9    28.8    28.7    28.5
 2019 350   183    29.7    29.7    29.6    29.5    29.4    29.3    29.2    29.0    28.8    28.7    28.6
 2019 351   184    29.8    29.8    29.7    29.6    29.5    29.4    29.3    29.1    28.9    28.8    28.6
 2019 352   185    30.1    30.1    30.0    29.9    29.7    29.6    29.4    29.2    29.0    28.9    28.7
 2019 353   186    30.4    30.4    30.3    30.1    30.0    29.8    29.6    29.4    29.2    29.0    28.8
 2019 354   187    30.6    30.6    30.5    30.3    30.1    30.0    29.8    29.5    29.3    29.1    28.9
 2019 355   188    30.5    30.5    30.4    30.2    30.1    29.9    29.7    29.5    29.2    29.0    28.9
 2019 356   189    30.5    30.5    30.4    30.3    30.1    29.9    29.7    29.5    29.2    29.0    28.9
 2019 357   190    30.4    30.3    30.3    30.1    29.9    29.8    29.6    29.3    29.1    28.9    28.8
 2019 358   191    30.4    30.3    30.2    30.1    29.9    29.8    29.6    29.3    29.1    28.9    28.8
 2019 359   192    30.4    30.4    30.3    30.1    30.0    29.8    29.6    29.4    29.1    28.9    28.8
 2019 360   193    30.6    30.6    30.5    30.3    30.1    30.0    29.7    29.5    29.2    29.0    28.8
 2019 361   194    30.5    30.5    30.4    30.2    30.0    29.9    29.6    29.4    29.2    28.9    28.8
 2019 362   195    30.5    30.5    30.4    30.2    30.0    29.9    29.6    29.4    29.1    28.9    28.8
 2019 363   196    30.4    30.3    30.2    30.1    29.9    29.7    29.5    29.2    29.0    28.8    28.7
 2019 364   197    30.1    30.1    30.0    29.8    29.6    29.5    29.3    29.1    28.9    28.7    28.6
 2019 365   198    30.0    30.0    29.9    29.7    29.6    29.4    29.2    29.0    28.8    28.6    28.5
 2020 001   199    29.9    29.9    29.8    29.7    29.5    29.4    29.2    29.0    28.8    28.6    28.5
 2020 002   200    29.4    29.4    29.3    29.2    29.1    29.0    28.8    28.7    28.5    28.4    28.3
 2020 003   201    29.2    29.2    29.1    29.0    28.9    28.8    28.7    28.5    28.4    28.3    28.2
 2020 004   202    29.1    29.1    29.0    28.9    28.8    28.7    28.6    28.4    28.3    28.2    28.1
 2020 005   203    28.8    28.8    28.7    28.6    28.5    28.5    28.3    28.2    28.1    28.0    28.0
 2020 006   204    28.9    28.9    28.8    28.7    28.6    28.5    28.4    28.3    28.2    28.1    28.0
 2020 007   205    29.3    29.3    29.2    29.1    28.9    28.8    28.7    28.5    28.4    28.2    28.2
 2020 008   206    29.8    29.8    29.7    29.5    29.4    29.2    29.0    28.8    28.6    28.5    28.4
 2020 009   207    30.5    30.4    30.3    30.1    29.9    29.7    29.5    29.2    29.0    28.8    28.6
 2020 010   208    31.1    31.0    30.9    30.6    30.4    30.2    29.9    29.6    29.3    29.0    28.8
 2020 011   209    31.1    31.0    30.9    30.7    30.4    30.2    29.9    29.6    29.3    29.0    28.8
 2020 012   210    31.2    31.1    31.0    30.7    30.5    30.3    30.0    29.6    29.3    29.1    28.9
 2020 013   211    31.3    31.2    31.1    30.8    30.6    30.3    30.0    29.7    29.4    29.1    28.9
 2020 014   212    31.4    31.3    31.2    30.9    30.6    30.4    30.1    29.7    29.4    29.1    28.9
 2020 015   213    31.6    31.6    31.4    31.1    30.8    30.6    30.2    29.8    29.5    29.2    29.0
 2020 016   214    32.0    31.9    31.7    31.4    31.1    30.8    30.5    30.0    29.7    29.4    29.1
 2020 017   215    32.3    32.2    32.0    31.7    31.4    31.1    30.7    30.2    29.8    29.5    29.2
 2020 018   216    32.0    31.9    31.7    31.4    31.1    30.8    30.5    30.0    29.7    29.3    29.1
 2020 019   217    31.6    31.5    31.4    31.1    30.8    30.5    30.2    29.8    29.4    29.1    28.9
 2020 020   218    31.2    31.2    31.0    30.8    30.5    30.2    29.9    29.5    29.2    29.0    28.8
 2020 021   219    31.2    31.1    31.0    30.7    30.4    30.2    29.8    29.5    29.2    28.9    28.7
 2020 022   220    31.4    31.4    31.2    30.9    30.6    30.4    30.0    29.6    29.3    29.0    28.8
 2020 023   221    31.9    31.8    31.6    31.3    31.0    30.7    30.3    29.9    29.5    29.2    29.0
 2020 024   222    32.2    32.1    31.9    31.6    31.2    30.9    30.5    30.0    29.6    29.3    29.1
 2020 025   223    32.2    32.1    31.9    31.6    31.2    30.9    30.5    30.0    29.6    29.3    29.1
 2020 026   224    32.2    32.2    31.9    31.6    31.3    30.9    30.5    30.0    29.6    29.3    29.1
 2020 027   225    31.9    31.9    31.7    31.4    31.0    30.7    30.3    29.9    29.5    29.2    28.9
 2020 028   226    31.8    31.7    31.5    31.2    30.9    30.6    30.2    29.8    29.4    29.1    28.9
 2020 029   227    32.0    31.9    31.7    31.4    31.0    30.7    30.3    29.8    29.5    29.1    28.9
 2020 030   228    32.3    32.3    32.1    31.7    31.3    31.0    30.6    30.1    29.6    29.3    29.1
 2020 031   229    32.6    32.5    32.3    31.9    31.5    31.2    30.7    30.2    29.8    29.4    29.1
 2020 032   230    32.8    32.7    32.5    32.1    31.7    31.3    30.8    30.3    29.9    29.5    29.2
 2020 033   231    32.9    32.8    32.6    32.2    31.8    31.4    30.9    30.4    29.9    29.5    29.2
 2020 034   232    32.9    32.8    32.5    32.2    31.7    31.4    30.9    30.3    29.9    29.5    29.2
 2020 035   233    32.4    32.4    32.1    31.8    31.4    31.0    30.6    30.0    29.6    29.3    29.0
 2020 036   234    32.2    32.1    31.9    31.5    31.1    30.8    30.4    29.9    29.5    29.1    28.9
 2020 037   235    32.0    31.9    31.7    31.4    31.0    30.7    30.2    29.7    29.3    29.0    28.8
 2020 038   236    32.2    32.1    31.9    31.6    31.2    30.8    30.4    29.9    29.4    29.1    28.9
 2020 039   237    32.8    32.7    32.4    32.1    31.6    31.3    30.8    30.2    29.7    29.3    29.1
 2020 040   238    33.4    33.3    33.1    32.6    32.2    31.8    31.2    30.6    30.1    29.6    29.3
 2020 041   239    33.8    33.7    33.4    33.0    32.5    32.0    31.5    30.8    30.2    29.8    29.5
 2020 042   240    34.2    34.1    33.8    33.3    32.8    32.4    31.7    31.0    30.4    30.0    29.6
 2020 043   241    34.0    33.8    33.6    33.1    32.6    32.1    31.5    30.8    30.3    29.8    29.5
 2020 044   242    33.5    33.4    33.1    32.7    32.2    31.8    31.2    30.6    30.0    29.6    29.3
 2020 045   243    33.3    33.2    33.0    32.5    32.0    31.6    31.1    30.4    29.9    29.5    29.2
 2020 046   244    33.5    33.4    33.2    32.7    32.2    31.8    31.2    30.6    30.0    29.6    29.3
 2020 047   245    33.8    33.7    33.4    32.9    32.4    32.0    31.4    30.7    30.1    29.7    29.3
 2020 048   246    34.4    34.2    33.9    33.4    32.9    32.4    31.8    31.0    30.4    29.9    29.6
 2020 049   247    34.5    34.4    34.1    33.6    33.0    32.5    31.9    31.1    30.5    30.0    29.6
 2020 050   248    34.2    34.1    33.8    33.3    32.8    32.3    31.6    30.9    30.3    29.8    29.5
 2020 051   249    34.2    34.1    33.8    33.3    32.8    32.3    31.6    30.9    30.3    29.8    29.4
 2020 052   250    34.4    34.2    33.9    33.4    32.9    32.4    31.7    31.0    30.3    29.8    29.5
 2020 053   251    34.7    34.6    34.3    33.7    33.2    32.6    32.0    31.2    30.5    30.0    29.6
 2020 054   252    35.4    35.3    35.0    34.4    33.8    33.2    32.4    31.6    30.9    30.3    29.9
 2020 055   253    36.4    36.2    35.8    35.2    34.5    33.9    33.1    32.1    31.4    30.7    30.2
 2020 056   254    36.3    36.2    35.8    35.2    34.5    33.9    33.1    32.1    31.3    30.7    30.2
 2020 057   255    35.7    35.6    35.2    34.6    34.0    33.4    32.6    31.7    31.0    30.4    30.0
 2020 058   256    35.1    35.0    34.6    34.0    33.4    32.9    32.1    31.3    30.6    30.1    29.7
 2020 059   257    34.3    34.2    33.8    33.3    32.8    32.2    31.6    30.8    30.2    29.7    29.3
 2020 060   258    34.0    33.9    33.6    33.1    32.5    32.0    31.4    30.6    30.0    29.5    29.2
 2020 061   259    34.0    33.9    33.6    33.1    32.5    32.0    31.4    30.6    30.0    29.5    29.2
 2020 062   260    34.1    34.0    33.7    33.1    32.6    32.1    31.4    30.7    30.0    29.5    29.2
 2020 063   261    34.0    33.9    33.6    33.1    32.5    32.0    31.3    30.6    30.0    29.5    29.2
 2020 064   262    34.4    34.3    33.9    33.4    32.8    32.3    31.6    30.8    30.2    29.6    29.3
 2020 065   263    34.5    34.3    34.0    33.5    32.9    32.3    31.6    30.8    30.2    29.7    29.3
 2020 066   264    34.1    34.0    33.7    33.2    32.6    32.1    31.4    30.6    30.0    29.5    29.1
 2020 067   265    34.7    34.6    34.2    33.7    33.1    32.5    31.8    31.0    30.3    29.7    29.4
 2020 068   266    35.2    35.1    34.7    34.1    33.5    32.9    32.1    31.3    30.5    30.0    29.5
 2020 069   267    35.6    35.5    35.1    34.5    33.8    33.2    32.4    31.5    30.7    30.1    29.7
 2020 070   268    35.4    35.3    34.9    34.3    33.6    33.0    32.3    31.4    30.6    30.0    29.6
 2020 071   269    35.7    35.5    35.2    34.5    33.9    33.2    32.4    31.5    30.7    30.1    29.7
 2020 072   270    35.4    35.3    34.9    34.3    33.6    33.0    32.2    31.3    30.6    30.0    29.6
 2020 073   271    34.9    34.8    34.4    33.8    33.2    32.6    31.8    31.0    30.3    29.7    29.3
 2020 074   272    34.4    34.2    33.9    33.3    32.7    32.2    31.5    30.7    30.0    29.5    29.1
 2020 075   273    34.5    34.4    34.0    33.5    32.9    32.3    31.6    30.7    30.1    29.5    29.1
 2020 076   274    34.8    34.7    34.3    33.7    33.1    32.5    31.7    30.9    30.2    29.6    29.2
 2020 077   275    35.1    35.0    34.6    34.0    33.4    32.8    32.0    31.1    30.4    29.8    29.4
 2020 078   276    35.5    35.4    35.0    34.4    33.7    33.1    32.2    31.3    30.6    29.9    29.5
 2020 079   277    35.9    35.7    35.3    34.7    34.0    33.3    32.5    31.5    30.7    30.1    29.6
 2020 080   278    35.6    35.5    35.1    34.5    33.8    33.1    32.3    31.4    30.6    30.0    29.5
 2020 081   279    35.2    35.1    34.7    34.1    33.4    32.8    32.0    31.1    30.4    29.8    29.3
 2020 082   280    34.5    34.3    34.0    33.4    32.8    32.2    31.5    30.6    30.0    29.4    29.0
 2020 083   281    33.7    33.6    33.2    32.7    32.1    31.6    30.9    30.2    29.5    29.0    28.7
 2020 084   282    32.4    32.3    32.0    31.5    31.1    30.6    30.0    29.4    28.9    28.5    28.2
 2020 085   283    31.5    31.4    31.2    30.8    30.4    30.0    29.5    28.9    28.5    28.1    27.9
 2020 086   284    31.1    31.0    30.8    30.4    30.0    29.6    29.2    28.7    28.2    27.9    27.7
 2020 087   285    31.5    31.4    31.1    30.7    30.3    29.9    29.4    28.9    28.4    28.1    27.8
 2020 088   286    32.2    32.1    31.8    31.4    30.9    30.5    29.9    29.3    28.8    28.4    28.1
 2020 089   287    32.9    32.8    32.5    32.0    31.5    31.0    30.4    29.7    29.1    28.6    28.3
 2020 090   288    33.2    33.1    32.8    32.3    31.8    31.3    30.6    29.9    29.3    28.8    28.5
 2020 091   289    33.0    32.9    32.6    32.1    31.6    31.1    30.5    29.8    29.2    28.7    28.4
 2020 092   290    32.1    32.0    31.7    31.3    30.8    30.4    29.8    29.2    28.7    28.3    28.0
 2020 093   291    31.4    31.3    31.1    30.7    30.2    29.8    29.3    28.7    28.3    27.9    27.7
 2020 094   292    30.9    30.9    30.6    30.2    29.8    29.4    28.9    28.4    28.0    27.7    27.5
 2020 095   293    30.9    30.8    30.6    30.2    29.8    29.4    28.9    28.4    27.9    27.6    27.4
 2020 096   294    31.1    31.1    30.8    30.4    30.0    29.6    29.1    28.5    28.1    27.7    27.5
 2020 097   295    31.5    31.4    31.1    30.7    30.2    29.8    29.3    28.7    28.2    27.9    27.6
 2020 098   296    31.9    31.8    31.5    31.1    30.6    30.2    29.6    29.0    28.5    28.1    27.8
 2020 099   297    31.9    31.8    31.5    31.1    30.6    30.2    29.7    29.0    28.5    28.1    27.9
 2020 100   298    31.3    31.2    30.9    30.5    30.1    29.7    29.2    28.7    28.2    27.9    27.6
 2020 101   299    30.5    30.4    30.2    29.9    29.5    29.2    28.7    28.2    27.8    27.5    27.3
 2020 102   300    30.2    30.1    30.0    29.7    29.3    29.0    28.6    28.2    27.8    27.5    27.3
 2020 103   301    29.5    29.4    29.2    29.0    28.7    28.4    28.1    27.7    27.4    27.1    27.0
 2020 104   302    29.8    29.7    29.6    29.3    29.0    28.7    28.3    27.9    27.5    27.3    27.1
 2020 105   303    30.6    30.6    30.4    30.0    29.7    29.4    28.9    28.4    28.0    27.7    27.5
 2020 106   304    31.7    31.6    31.4    31.0    30.6    30.2    29.7    29.1    28.6    28.2    27.9
 2020 107   305    32.6    32.5    32.3    31.8    31.4    30.9    30.4    29.7    29.1    28.7    28.4
 2020 108   306    33.3    33.2    32.9    32.4    31.9    31.4    30.8    30.1    29.5    29.0    28.6
 2020 109   307    33.5    33.4    33.1    32.6    32.1    31.6    30.9    30.2    29.5    29.0    28.6
 2020 110   308    33.2    33.1    32.8    32.3    31.8    31.3    30.7    30.0    29.4    28.8    28.5
 2020 111   309    33.0    32.9    32.6    32.1    31.6    31.2    30.5    29.8    29.2    28.7    28.4
 2020 112   310    32.4    32.3    32.0    31.6    31.1    30.7    30.1    29.4    28.9    28.4    28.1
 2020 113   311    31.7    31.7    31.4    31.0    30.6    30.2    29.6    29.0    28.5    28.1    27.8
 2020 114   312    31.4    31.3    31.1    30.7    30.3    29.9    29.4    28.8    28.3    27.9    27.6
 2020 115   313    31.2    31.1    30.9    30.5    30.1    29.7    29.2    28.6    28.2    27.8    27.5
 2020 116   314    30.9    30.8    30.6    30.3    29.9    29.5    29.0    28.5    28.0    27.7    27.4
 2020 117   315    30.5    30.4    30.2    29.9    29.5    29.2    28.7    28.2    27.8    27.5    27.3
 2020 118   316    30.2    30.2    30.0    29.7    29.3    29.0    28.6    28.1    27.7    27.4    27.1
 2020 119   317    30.2    30.2    30.0    29.7    29.3    29.0    28.6    28.1    27.7    27.4    27.1
 2020 120   318    30.1    30.0    29.8    29.5    29.2    28.9    28.4    28.0    27.6    27.3    27.1
 2020 121   319    29.7    29.6    29.4    29.2    28.8    28.5    28.2    27.7    27.4    27.1    26.9
 2020 122   320    29.6    29.5    29.3    29.0    28.7    28.4    28.1    27.6    27.3    27.0    26.8
 2020 123   321    30.0    29.9    29.7    29.4    29.1    28.8    28.3    27.9    27.5    27.2    27.0
 2020 124   322    29.5    29.4    29.2    28.9    28.6    28.4    28.0    27.6    27.2    26.9    26.8
 2020 125   323    29.3    29.3    29.1    28.8    28.5    28.2    27.9    27.5    27.1    26.9    26.7
 2020 126   324    30.0    29.9    29.7    29.4    29.1    28.8    28.4    27.9    27.5    27.2    27.0
 2020 127   325    30.9    30.8    30.6    30.2    29.8    29.5    29.0    28.4    28.0    27.6    27.4
 2020 128   326    31.0    30.9    30.7    30.3    29.9    29.6    29.1    28.5    28.0    27.7    27.4
 2020 129   327    31.5    31.5    31.2    30.8    30.4    30.0    29.4    28.8    28.3    27.9    27.6
 2020 130   328    31.9    31.8    31.5    31.1    30.6    30.2    29.6    29.0    28.5    28.0    27.7
 2020 131   329    31.3    31.3    31.0    30.6    30.2    29.8    29.3    28.7    28.2    27.8    27.5
 2020 132   330    30.5    30.5    30.2    29.9    29.5    29.2    28.7    28.2    27.8    27.4    27.2
 2020 133   331    30.3    30.3    30.1    29.7    29.4    29.0    28.6    28.1    27.6    27.3    27.1
 2020 134   332    30.2    30.2    30.0    29.6    29.3    28.9    28.5    28.0    27.6    27.2    27.0
 2020 135   333    30.5    30.5    30.2    29.9    29.5    29.1    28.7    28.1    27.7    27.3    27.1
 2020 136   334    30.8    30.7    30.5    30.1    29.7    29.4    28.9    28.3    27.8    27.5    27.2
 2020 137   335    31.2    31.1    30.9    30.5    30.1    29.7    29.1    28.5    28.1    27.7    27.4
 2020 138   336    31.0    30.9    30.7    30.3    29.9    29.5    29.0    28.4    27.9    27.6    27.3
 2020 139   337    30.6    30.6    30.3    30.0    29.6    29.2    28.8    28.2    27.8    27.4    27.2
 2020 140   338    29.8    29.7    29.6    29.3    28.9    28.6    28.2    27.8    27.4    27.1    26.9
 2020 141   339    29.3    29.2    29.1    28.8    28.5    28.3    27.9    27.5    27.2    26.9    26.7
 2020 142   340    28.9    28.9    28.7    28.5    28.2    28.0    27.7    27.3    27.0    26.8    26.6
 2020 143   341    28.8    28.8    28.6    28.4    28.2    28.0    27.7    27.3    27.0    26.8    26.6
 2020 144   342    28.8    28.8    28.7    28.4    28.2    28.0    27.7    27.3    27.0    26.8    26.6
 2020 145   343    29.0    29.0    28.8    28.6    28.3    28.1    27.8    27.4    27.1    26.9    26.7
 2020 146   344    28.8    28.8    28.6    28.4    28.2    28.0    27.7    27.3    27.0    26.8    26.6
 2020 147   345    28.5    28.5    28.4    28.2    28.0    27.7    27.5    27.1    26.8    26.6    26.5
 2020 148   346    28.6    28.6    28.4    28.2    28.0    27.8    27.5    27.2    26.9    26.6    26.5
 2020 149   347    28.5    28.4    28.3    28.1    27.9    27.7    27.4    27.1    26.8    26.6    26.4
 2020 150   348    28.3    28.2    28.1    27.9    27.7    27.5    27.3    26.9    26.7    26.5    26.3
 2020 151   349    28.2    28.1    28.0    27.8    27.6    27.4    27.2    26.9    26.6    26.4    26.3
 2020 152   350    28.3    28.2    28.1    27.9    27.7    27.6    27.3    27.0    26.7    26.5    26.4
 2020 153   351    27.9    27.8    27.7    27.6    27.4    27.2    27.0    26.7    26.5    26.3    26.2
 2020 154   352    27.8    27.8    27.7    27.5    27.4    27.2    27.0    26.7    26.5    26.3    26.2
 2020 155   353    28.0    28.0    27.9    27.7    27.5    27.3    27.1    26.8    26.6    26.4    26.2
 2020 156   354    28.2    28.1    28.0    27.9    27.7    27.5    27.2    26.9    26.7    26.5    26.3
 2020 157   355    28.2    28.1    28.0    27.9    27.7    27.5    27.2    26.9    26.7    26.5    26.3
 2020 158   356    28.2    28.1    28.0    27.9    27.7    27.5    27.3    27.0    26.7    26.5    26.4
 2020 159   357    28.3    28.3    28.2    28.0    27.8    27.6    27.4    27.1    26.8    26.6    26.5
 2020 160   358    28.5    28.5    28.4    28.2    28.0    27.8    27.6    27.3    27.0    26.8    26.6
 2020 161   359    28.3    28.3    28.2    28.0    27.9    27.7    27.4    27.1    26.9    26.7    26.5
 2020 162   360    28.3    28.2    28.1    28.0    27.8    27.6    27.4    27.1    26.9    26.7    26.5
 2020 163   361    28.4    28.3    28.2    28.1    27.9    27.7    27.5    27.2    27.0    26.7    26.6
 2020 164   362    28.2    28.2    28.1    27.9    27.7    27.6    27.4    27.1    26.9    26.7    26.5
 2020 165   363    27.5    27.5    27.4    27.3    27.2    27.1    26.9    26.7    26.5    26.3    26.2
 2020 166   364    27.8    27.8    27.7    27.6    27.5    27.3    27.1    26.9    26.7    26.5    26.4
 2020 167   365    28.0    28.0    27.9    27.8    27.6    27.5    27.3    27.0    26.8    26.6    26.5
 2020 168   366    28.1    28.1    28.0    27.9    27.7    27.5    27.3    27.1    26.9    26.7    26.5
 2020 169   367    28.0    28.0    27.9    27.8    27.6    27.5    27.3    27.0    26.8    26.6    26.5
 2020 170   368    28.0    28.0    27.9    27.8    27.6    27.5    27.3    27.0    26.8    26.6    26.5
 2020 171   369    27.9    27.9    27.8    27.7    27.5    27.4    27.2    27.0    26.7    26.6    26.4
 2020 172   370    27.9    27.9    27.8    27.7    27.5    27.4    27.2    27.0    26.7    26.6    26.4
 2020 173   371    28.0    27.9    27.9    27.7    27.6    27.4    27.3    27.0    26.8    26.6    26.5
 2020 174   372    27.9    27.9    27.8    27.7    27.5    27.4    27.2    27.0    26.8    26.6    26.5
 2020 175   373    28.2    28.1    28.1    27.9    27.8    27.6    27.4    27.2    26.9    26.7    26.6
 2020 176   374    28.4    28.4    28.3    28.2    28.0    27.8    27.6    27.3    27.1    26.9    26.7
 2020 177   375    28.3    28.2    28.1    28.0    27.9    27.7    27.5    27.2    27.0    26.8    26.6
 2020 178   376    27.7    27.7    27.6    27.5    27.4    27.3    27.1    26.9    26.7    26.5    26.4
 2020 179   377    27.7    27.7    27.6    27.5    27.4    27.3    27.1    26.9    26.7    26.5    26.4
 2020 180   378    27.5    27.5    27.5    27.4    27.2    27.1    27.0    26.8    26.6    26.4    26.3
 2020 181   379    27.3    27.3    27.2    27.1    27.0    26.9    26.8    26.6    26.5    26.3    26.2
 2020 182   380    27.0    27.0    26.9    26.9    26.8    26.7    26.6    26.4    26.3    26.2    26.1
 2020 183   381    27.3    27.3    27.2    27.1    27.1    27.0    26.8    26.7    26.5    26.4    26.2
 2020 184   382    27.5    27.5    27.4    27.3    27.2    27.1    27.0    26.8    26.6    26.5    26.3
 2020 185   383    27.7    27.7    27.6    27.5    27.4    27.3    27.1    26.9    26.8    26.6    26.5
 2020 186   384    27.5    27.5    27.4    27.4    27.3    27.2    27.0    26.8    26.7    26.5    26.4
 2020 187   385    27.4    27.4    27.4    27.3    27.2    27.1    27.0    26.8    26.6    26.5    26.4
 2020 188   386    27.4    27.4    27.4    27.3    27.2    27.1    27.0    26.8    26.7    26.5    26.4
 2020 189   387    27.1    27.1    27.1    27.0    26.9    26.9    26.7    26.6    26.5    26.3    26.2
 2020 190   388    26.8    26.8    26.8    26.8    26.7    26.6    26.5    26.4    26.3    26.2    26.1
 2020 191   389    27.1    27.1    27.0    27.0    26.9    26.8    26.7    26.6    26.5    26.3    26.3
 2020 192   390    27.1    27.1    27.1    27.0    26.9    26.9    26.8    26.6    26.5    26.4    26.3
 2020 193   391    26.9    26.9    26.8    26.8    26.7    26.7    26.6    26.5    26.4    26.3    26.2
 2020 194   392    26.6    26.6    26.6    26.6    26.5    26.5    26.4    26.3    26.2    26.1    26.1
 2020 195   393    26.5    26.5    26.5    26.5    26.5    26.4    26.4    26.3    26.2    26.1    26.0
 2020 196   394    25.9    25.9    25.9    25.9    25.9    25.9    25.9    25.9    25.8    25.8    25.7
 2020 197   395    25.6    25.6    25.6    25.6    25.6    25.6    25.6    25.6    25.6    25.6    25.6
 2020 198   396    25.4    25.4    25.4    25.4    25.5    25.5    25.5    25.5    25.5    25.5    25.5
 2020 199   397    25.4    25.4    25.4    25.5    25.5    25.5    25.5    25.5    25.5    25.5    25.5
 2020 200   398    25.2    25.2    25.2    25.2    25.3    25.3    25.3    25.4    25.4    25.4    25.4
 2020 201   399    25.3    25.3    25.3    25.4    25.4    25.4    25.5    25.5    25.5    25.5    25.5
 2020 202   400    25.5    25.5    25.5    25.5    25.6    25.6    25.6    25.6    25.6    25.6    25.6
 2020 203   401    25.3    25.3    25.3    25.4    25.4    25.4    25.5    25.5    25.5    25.5    25.5
 2020 204   402    25.6    25.6    25.6    25.6    25.7    25.7    25.7    25.7    25.7    25.7    25.7
 2020 205   403    25.8    25.8    25.8    25.9    25.9    25.9    25.9    25.9    25.9    25.9    25.8
 2020 206   404    25.7    25.7    25.8    25.8    25.8    25.8    25.8    25.8    25.8    25.8    25.8
 2020 207   405    25.8    25.8    25.8    25.8    25.9    25.9    25.9    25.9    25.9    25.9    25.9
 2020 208   406    26.3    26.3    26.3    26.3    26.3    26.3    26.3    26.2    26.2    26.2    26.1
 2020 209   407    26.0    26.0    26.0    26.1    26.1    26.1    26.1    26.1    26.1    26.0    26.0

*DSSAT Cropping System Model Ver. 4.8.0.019 -develop  APR 08, 2023 12:34:37

*RUN   2        : IITA-TMS-IBA000070        CSYCA048 UYAG1701    1
 MODEL          : CSYCA048 - Cassava
 EXPERIMENT     : UYAG1701 CS UYT_GXE
 DATA PATH      :
 TREATMENT  1   : IITA-TMS-IBA000070        CSYCA048
  
! TAV  =    25.4
! TAMP =     2.5
!               Temperature (oC) by soil depth (cm):
!               Surface     0-5    5-15   15-30   30-45   45-60   60-80  80-100 100-150 150-200
@YEAR DOY   DAS    TS0D    TS1D    TS2D    TS3D    TS4D    TS5D    TS6D    TS7D    TS8D    TS9D    
 2017 241     1    26.1    26.1    26.1    26.1    26.1    26.1    26.1    26.1    26.1    26.0
 2017 242     2    26.1    26.1    26.1    26.1    26.1    26.1    26.1    26.1    26.0    26.0
 2017 243     3    26.0    26.0    26.0    26.0    26.0    26.0    26.0    26.0    26.0    25.9
 2017 244     4    26.0    26.0    26.0    26.0    26.0    26.0    26.0    26.0    26.0    25.9
 2017 245     5    26.1    26.1    26.1    26.1    26.1    26.1    26.1    26.1    26.0    26.0
 2017 246     6    26.0    26.0    26.1    26.1    26.1    26.1    26.1    26.0    26.0    26.0
 2017 247     7    26.3    26.3    26.3    26.3    26.3    26.3    26.3    26.3    26.2    26.1
 2017 248     8    26.5    26.5    26.5    26.5    26.5    26.5    26.5    26.4    26.4    26.3
 2017 249     9    26.8    26.8    26.8    26.8    26.8    26.7    26.7    26.7    26.6    26.4
 2017 250    10    26.7    26.7    26.7    26.7    26.6    26.6    26.6    26.5    26.5    26.4
 2017 251    11    26.8    26.8    26.8    26.8    26.8    26.7    26.7    26.7    26.6    26.5
 2017 252    12    26.9    26.9    26.9    26.9    26.8    26.8    26.8    26.7    26.6    26.5
 2017 253    13    27.2    27.2    27.2    27.2    27.1    27.1    27.0    27.0    26.9    26.7
 2017 254    14    27.0    26.9    26.9    26.9    26.9    26.8    26.8    26.8    26.7    26.5
 2017 255    15    27.1    27.1    27.1    27.1    27.1    27.0    27.0    26.9    26.8    26.7
 2017 256    16    27.1    27.1    27.1    27.1    27.1    27.0    27.0    26.9    26.8    26.7
 2017 257    17    27.1    27.1    27.1    27.1    27.0    27.0    26.9    26.9    26.8    26.6
 2017 258    18    26.7    26.7    26.7    26.7    26.6    26.6    26.6    26.6    26.5    26.4
 2017 259    19    26.5    26.5    26.5    26.5    26.5    26.4    26.4    26.4    26.4    26.3
 2017 260    20    26.5    26.5    26.5    26.5    26.5    26.5    26.4    26.4    26.4    26.3
 2017 261    21    26.9    26.9    26.8    26.8    26.8    26.8    26.7    26.7    26.6    26.5
 2017 262    22    26.9    26.9    26.9    26.9    26.8    26.8    26.8    26.7    26.7    26.5
 2017 263    23    27.1    27.1    27.1    27.1    27.0    27.0    26.9    26.9    26.8    26.7
 2017 264    24    27.3    27.3    27.3    27.2    27.2    27.1    27.1    27.0    26.9    26.8
 2017 265    25    27.2    27.2    27.1    27.1    27.1    27.0    27.0    26.9    26.8    26.7
 2017 266    26    27.0    27.0    27.0    27.0    26.9    26.9    26.9    26.8    26.7    26.6
 2017 267    27    26.8    26.8    26.8    26.7    26.7    26.7    26.7    26.6    26.6    26.5
 2017 268    28    26.8    26.8    26.7    26.7    26.7    26.7    26.7    26.6    26.6    26.5
 2017 269    29    26.8    26.8    26.8    26.8    26.8    26.8    26.8    26.7    26.7    26.5
 2017 270    30    27.0    27.0    27.0    27.0    27.0    26.9    26.9    26.9    26.8    26.7
 2017 271    31    27.0    27.0    27.0    27.0    27.0    27.0    26.9    26.9    26.8    26.7
 2017 272    32    27.0    27.0    27.0    27.0    26.9    26.9    26.9    26.8    26.8    26.6
 2017 273    33    27.1    27.1    27.1    27.1    27.0    27.0    27.0    26.9    26.8    26.7
 2017 274    34    27.4    27.4    27.4    27.3    27.3    27.3    27.2    27.1    27.0    26.9
 2017 275    35    27.7    27.7    27.6    27.6    27.5    27.5    27.4    27.3    27.2    27.0
 2017 276    36    28.0    28.0    27.9    27.9    27.8    27.7    27.7    27.6    27.4    27.2
 2017 277    37    28.1    28.1    28.1    28.0    27.9    27.9    27.8    27.7    27.5    27.3
 2017 278    38    27.5    27.5    27.5    27.5    27.4    27.4    27.3    27.2    27.1    27.0
 2017 279    39    27.6    27.6    27.6    27.5    27.5    27.4    27.4    27.3    27.2    27.0
 2017 280    40    27.4    27.3    27.3    27.3    27.3    27.2    27.2    27.1    27.0    26.9
 2017 281    41    27.0    27.0    27.0    27.0    27.0    26.9    26.9    26.9    26.8    26.7
 2017 282    42    27.2    27.2    27.1    27.1    27.1    27.1    27.0    27.0    26.9    26.8
 2017 283    43    27.7    27.7    27.6    27.6    27.6    27.5    27.4    27.4    27.2    27.1
 2017 284    44    27.4    27.4    27.3    27.3    27.3    27.2    27.2    27.1    27.0    26.9
 2017 285    45    27.4    27.4    27.4    27.3    27.3    27.3    27.2    27.2    27.1    26.9
 2017 286    46    27.4    27.4    27.4    27.4    27.3    27.3    27.3    27.2    27.1    26.9
 2017 287    47    27.5    27.5    27.5    27.4    27.4    27.4    27.3    27.2    27.1    27.0
 2017 288    48    27.8    27.8    27.8    27.7    27.7    27.6    27.5    27.5    27.3    27.1
 2017 289    49    28.1    28.1    28.1    28.0    28.0    27.9    27.8    27.7    27.6    27.3
 2017 290    50    28.4    28.4    28.3    28.2    28.2    28.1    28.0    27.9    27.7    27.5
 2017 291    51    28.1    28.1    28.1    28.0    27.9    27.9    27.8    27.7    27.5    27.3
 2017 292    52    27.9    27.8    27.8    27.8    27.7    27.6    27.6    27.5    27.4    27.2
 2017 293    53    27.8    27.8    27.8    27.7    27.6    27.6    27.5    27.5    27.3    27.1
 2017 294    54    27.8    27.7    27.7    27.7    27.6    27.6    27.5    27.4    27.3    27.1
 2017 295    55    27.6    27.6    27.6    27.5    27.5    27.4    27.4    27.3    27.2    27.0
 2017 296    56    28.1    28.1    28.1    28.0    28.0    27.9    27.8    27.7    27.6    27.3
 2017 297    57    28.6    28.6    28.6    28.5    28.4    28.3    28.2    28.1    27.9    27.6
 2017 298    58    28.7    28.6    28.6    28.5    28.4    28.3    28.2    28.1    27.9    27.6
 2017 299    59    28.5    28.5    28.5    28.4    28.3    28.2    28.1    28.0    27.8    27.5
 2017 300    60    28.4    28.4    28.3    28.2    28.2    28.1    28.0    27.9    27.7    27.5
 2017 301    61    27.9    27.9    27.9    27.8    27.8    27.7    27.6    27.5    27.4    27.2
 2017 302    62    27.8    27.8    27.8    27.7    27.7    27.6    27.5    27.5    27.3    27.1
 2017 303    63    27.8    27.8    27.7    27.7    27.6    27.6    27.5    27.4    27.3    27.1
 2017 304    64    28.0    27.9    27.9    27.9    27.8    27.7    27.6    27.6    27.4    27.2
 2017 305    65    27.9    27.9    27.9    27.8    27.8    27.7    27.6    27.5    27.4    27.2
 2017 306    66    28.1    28.0    28.0    27.9    27.9    27.8    27.7    27.6    27.5    27.3
 2017 307    67    27.8    27.8    27.8    27.7    27.7    27.6    27.5    27.5    27.3    27.1
 2017 308    68    27.7    27.6    27.6    27.6    27.5    27.5    27.4    27.3    27.2    27.0
 2017 309    69    27.3    27.3    27.3    27.2    27.2    27.2    27.1    27.1    27.0    26.8
 2017 310    70    27.5    27.5    27.4    27.4    27.3    27.3    27.2    27.2    27.1    26.9
 2017 311    71    27.7    27.7    27.7    27.6    27.5    27.5    27.4    27.4    27.2    27.1
 2017 312    72    28.0    28.0    28.0    27.9    27.8    27.8    27.7    27.6    27.4    27.2
 2017 313    73    28.4    28.4    28.3    28.2    28.1    28.0    27.9    27.8    27.6    27.4
 2017 314    74    28.9    28.9    28.8    28.7    28.6    28.5    28.3    28.2    28.0    27.7
 2017 315    75    29.2    29.1    29.1    28.9    28.8    28.7    28.5    28.4    28.1    27.8
 2017 316    76    29.4    29.4    29.3    29.2    29.0    28.9    28.7    28.6    28.3    27.9
 2017 317    77    29.3    29.2    29.2    29.0    28.9    28.8    28.6    28.5    28.2    27.8
 2017 318    78    29.2    29.1    29.1    28.9    28.8    28.7    28.5    28.4    28.1    27.8
 2017 319    79    28.9    28.9    28.8    28.7    28.6    28.5    28.4    28.2    28.0    27.7
 2017 320    80    28.7    28.7    28.6    28.5    28.4    28.3    28.2    28.0    27.8    27.5
 2017 321    81    28.5    28.5    28.4    28.3    28.2    28.1    28.0    27.9    27.7    27.4
 2017 322    82    28.4    28.3    28.3    28.2    28.1    28.0    27.9    27.8    27.6    27.3
 2017 323    83    27.7    27.7    27.7    27.6    27.6    27.5    27.4    27.3    27.2    27.0
 2017 324    84    27.2    27.2    27.2    27.2    27.1    27.1    27.0    27.0    26.9    26.8
 2017 325    85    27.5    27.5    27.5    27.4    27.4    27.3    27.2    27.2    27.1    26.9
 2017 326    86    27.4    27.4    27.4    27.3    27.3    27.2    27.2    27.1    27.0    26.8
 2017 327    87    27.2    27.2    27.2    27.1    27.1    27.0    27.0    26.9    26.8    26.7
 2017 328    88    27.5    27.5    27.4    27.4    27.3    27.3    27.2    27.2    27.0    26.9
 2017 329    89    28.0    28.0    27.9    27.9    27.8    27.7    27.6    27.5    27.4    27.1
 2017 330    90    27.9    27.9    27.8    27.7    27.7    27.6    27.5    27.4    27.3    27.1
 2017 331    91    28.0    28.0    28.0    27.9    27.8    27.7    27.6    27.5    27.4    27.1
 2017 332    92    28.4    28.4    28.3    28.2    28.1    28.0    27.9    27.8    27.6    27.3
 2017 333    93    28.7    28.7    28.6    28.5    28.4    28.3    28.1    28.0    27.8    27.5
 2017 334    94    28.9    28.8    28.8    28.7    28.5    28.4    28.3    28.1    27.9    27.5
 2017 335    95    28.7    28.7    28.6    28.5    28.4    28.3    28.1    28.0    27.8    27.5
 2017 336    96    28.9    28.9    28.8    28.7    28.5    28.4    28.3    28.1    27.9    27.5
 2017 337    97    29.0    29.0    28.9    28.8    28.6    28.5    28.3    28.2    27.9    27.6
 2017 338    98    29.1    29.0    29.0    28.8    28.7    28.5    28.4    28.2    27.9    27.6
 2017 339    99    29.1    29.0    29.0    28.8    28.7    28.5    28.4    28.2    27.9    27.6
 2017 340   100    29.5    29.5    29.4    29.2    29.1    28.9    28.7    28.5    28.2    27.8
 2017 341   101    29.3    29.3    29.2    29.0    28.9    28.7    28.5    28.4    28.1    27.7
 2017 342   102    29.1    29.1    29.0    28.9    28.7    28.6    28.4    28.2    28.0    27.6
 2017 343   103    28.5    28.5    28.4    28.3    28.2    28.1    27.9    27.8    27.6    27.3
 2017 344   104    27.9    27.9    27.9    27.8    27.7    27.6    27.5    27.4    27.2    27.0
 2017 345   105    27.3    27.3    27.3    27.2    27.2    27.1    27.0    27.0    26.9    26.7
 2017 346   106    27.1    27.1    27.0    27.0    26.9    26.9    26.8    26.8    26.7    26.6
 2017 347   107    27.1    27.1    27.1    27.0    27.0    26.9    26.9    26.8    26.7    26.6
 2017 348   108    27.5    27.5    27.5    27.4    27.3    27.3    27.2    27.1    27.0    26.8
 2017 349   109    28.1    28.1    28.0    27.9    27.8    27.7    27.6    27.5    27.3    27.1
 2017 350   110    28.8    28.8    28.7    28.5    28.4    28.3    28.1    27.9    27.7    27.4
 2017 351   111    29.1    29.1    29.0    28.9    28.7    28.5    28.4    28.2    27.9    27.5
 2017 352   112    29.1    29.1    29.0    28.9    28.7    28.5    28.4    28.2    27.9    27.6
 2017 353   113    28.7    28.7    28.6    28.5    28.3    28.2    28.0    27.9    27.7    27.4
 2017 354   114    28.5    28.5    28.4    28.3    28.2    28.1    27.9    27.8    27.6    27.3
 2017 355   115    28.4    28.4    28.3    28.2    28.1    28.0    27.9    27.7    27.5    27.3
 2017 356   116    28.3    28.3    28.3    28.2    28.0    27.9    27.8    27.7    27.5    27.3
 2017 357   117    27.9    27.9    27.8    27.7    27.6    27.5    27.4    27.3    27.2    27.0
 2017 358   118    28.3    28.3    28.2    28.1    28.0    27.9    27.7    27.6    27.4    27.2
 2017 359   119    28.2    28.2    28.1    28.0    27.9    27.8    27.7    27.5    27.3    27.1
 2017 360   120    27.8    27.8    27.7    27.6    27.5    27.4    27.4    27.3    27.1    26.9
 2017 361   121    27.5    27.5    27.5    27.4    27.3    27.2    27.1    27.1    26.9    26.8
 2017 362   122    27.9    27.8    27.8    27.7    27.6    27.5    27.4    27.3    27.1    26.9
 2017 363   123    27.8    27.7    27.7    27.6    27.5    27.4    27.3    27.2    27.0    26.8
 2017 364   124    27.7    27.7    27.6    27.5    27.4    27.4    27.3    27.1    27.0    26.8
 2017 365   125    27.8    27.8    27.8    27.7    27.6    27.5    27.4    27.2    27.1    26.9
 2018 001   126    27.7    27.7    27.6    27.5    27.4    27.4    27.3    27.2    27.0    26.8
 2018 002   127    27.4    27.4    27.4    27.3    27.2    27.1    27.0    27.0    26.8    26.7
 2018 003   128    27.1    27.1    27.1    27.0    26.9    26.9    26.8    26.7    26.6    26.5
 2018 004   129    26.9    26.9    26.9    26.8    26.8    26.7    26.7    26.6    26.5    26.4
 2018 005   130    26.7    26.6    26.6    26.6    26.5    26.5    26.4    26.4    26.3    26.3
 2018 006   131    26.5    26.5    26.5    26.5    26.4    26.4    26.4    26.3    26.3    26.2
 2018 007   132    26.7    26.6    26.6    26.6    26.5    26.5    26.4    26.4    26.3    26.2
 2018 008   133    27.0    27.0    27.0    26.9    26.8    26.8    26.7    26.6    26.5    26.4
 2018 009   134    27.4    27.4    27.3    27.3    27.2    27.1    27.0    26.9    26.8    26.6
 2018 010   135    27.8    27.8    27.7    27.6    27.5    27.4    27.3    27.1    27.0    26.8
 2018 011   136    28.3    28.2    28.1    28.0    27.9    27.7    27.6    27.4    27.2    27.0
 2018 012   137    28.6    28.6    28.5    28.4    28.2    28.0    27.9    27.7    27.4    27.1
 2018 013   138    28.6    28.6    28.5    28.4    28.2    28.0    27.9    27.7    27.4    27.1
 2018 014   139    28.2    28.2    28.1    28.0    27.8    27.7    27.5    27.4    27.2    26.9
 2018 015   140    28.2    28.1    28.0    27.9    27.8    27.6    27.5    27.3    27.1    26.9
 2018 016   141    28.2    28.2    28.1    28.0    27.8    27.7    27.5    27.4    27.2    26.9
 2018 017   142    28.2    28.2    28.1    27.9    27.8    27.7    27.5    27.4    27.1    26.9
 2018 018   143    28.4    28.4    28.3    28.1    28.0    27.8    27.7    27.5    27.2    27.0
 2018 019   144    29.0    28.9    28.8    28.6    28.4    28.3    28.1    27.9    27.6    27.2
 2018 020   145    29.2    29.1    29.0    28.8    28.6    28.4    28.2    28.0    27.7    27.3
 2018 021   146    29.2    29.1    29.0    28.8    28.6    28.4    28.2    28.0    27.6    27.3
 2018 022   147    29.2    29.2    29.1    28.9    28.6    28.4    28.2    28.0    27.7    27.3
 2018 023   148    29.2    29.1    29.0    28.8    28.6    28.4    28.2    28.0    27.6    27.2
 2018 024   149    29.0    28.9    28.8    28.6    28.4    28.2    28.0    27.8    27.5    27.1
 2018 025   150    28.6    28.6    28.5    28.3    28.1    27.9    27.7    27.6    27.3    27.0
 2018 026   151    28.1    28.0    27.9    27.8    27.6    27.5    27.3    27.2    27.0    26.7
 2018 027   152    28.0    28.0    27.9    27.8    27.6    27.5    27.3    27.2    26.9    26.7
 2018 028   153    28.1    28.0    27.9    27.8    27.6    27.5    27.3    27.2    26.9    26.7
 2018 029   154    28.4    28.4    28.3    28.1    27.9    27.7    27.6    27.4    27.1    26.8
 2018 030   155    28.9    28.8    28.7    28.5    28.3    28.1    27.9    27.7    27.4    27.0
 2018 031   156    29.4    29.3    29.2    29.0    28.7    28.5    28.2    28.0    27.6    27.2
 2018 032   157    29.6    29.6    29.4    29.2    28.9    28.7    28.4    28.1    27.8    27.3
 2018 033   158    29.9    29.8    29.6    29.4    29.1    28.8    28.6    28.3    27.9    27.4
 2018 034   159    30.1    30.0    29.9    29.6    29.3    29.0    28.7    28.4    28.0    27.5
 2018 035   160    30.2    30.1    29.9    29.6    29.3    29.1    28.8    28.5    28.0    27.5
 2018 036   161    30.7    30.6    30.4    30.1    29.8    29.4    29.1    28.8    28.3    27.7
 2018 037   162    31.0    30.9    30.7    30.4    30.0    29.7    29.3    29.0    28.4    27.8
 2018 038   163    30.8    30.8    30.6    30.2    29.9    29.6    29.2    28.9    28.4    27.8
 2018 039   164    30.5    30.5    30.3    30.0    29.7    29.4    29.1    28.7    28.3    27.7
 2018 040   165    30.1    30.1    29.9    29.6    29.3    29.1    28.8    28.5    28.1    27.6
 2018 041   166    29.5    29.5    29.4    29.1    28.9    28.7    28.4    28.2    27.8    27.4
 2018 042   167    29.1    29.1    28.9    28.7    28.5    28.3    28.1    27.9    27.5    27.2
 2018 043   168    29.0    29.0    28.9    28.7    28.4    28.2    28.0    27.8    27.5    27.1
 2018 044   169    28.8    28.8    28.7    28.5    28.3    28.1    27.9    27.6    27.3    27.0
 2018 045   170    29.4    29.4    29.2    29.0    28.8    28.5    28.3    28.0    27.6    27.2
 2018 046   171    29.8    29.7    29.6    29.3    29.0    28.8    28.5    28.2    27.8    27.3
 2018 047   172    30.2    30.1    29.9    29.6    29.3    29.1    28.8    28.5    28.0    27.5
 2018 048   173    30.5    30.4    30.2    29.9    29.6    29.3    29.0    28.7    28.2    27.6
 2018 049   174    30.6    30.5    30.3    30.0    29.7    29.4    29.0    28.7    28.2    27.7
 2018 050   175    30.3    30.2    30.0    29.7    29.4    29.1    28.8    28.5    28.0    27.5
 2018 051   176    29.8    29.7    29.6    29.3    29.0    28.8    28.5    28.2    27.8    27.3
 2018 052   177    29.0    29.0    28.9    28.6    28.4    28.2    27.9    27.7    27.3    27.0
 2018 053   178    28.5    28.4    28.3    28.1    27.9    27.7    27.5    27.3    27.0    26.7
 2018 054   179    28.1    28.1    28.0    27.8    27.6    27.4    27.2    27.0    26.8    26.5
 2018 055   180    27.7    27.7    27.6    27.4    27.2    27.1    26.9    26.8    26.6    26.3
 2018 056   181    28.1    28.1    27.9    27.8    27.6    27.4    27.2    27.0    26.8    26.5
 2018 057   182    28.0    27.9    27.8    27.6    27.4    27.3    27.1    26.9    26.7    26.4
 2018 058   183    27.9    27.9    27.8    27.6    27.4    27.2    27.1    26.9    26.6    26.4
 2018 059   184    28.0    27.9    27.8    27.6    27.4    27.3    27.1    26.9    26.7    26.4
 2018 060   185    28.1    28.1    27.9    27.8    27.6    27.4    27.2    27.0    26.7    26.4
 2018 061   186    28.0    28.0    27.9    27.7    27.5    27.3    27.1    26.9    26.7    26.4
 2018 062   187    29.0    28.9    28.8    28.5    28.3    28.0    27.8    27.5    27.2    26.8
 2018 063   188    29.8    29.8    29.6    29.3    29.0    28.7    28.4    28.1    27.6    27.1
 2018 064   189    30.3    30.2    30.0    29.7    29.3    29.0    28.7    28.4    27.9    27.3
 2018 065   190    30.7    30.6    30.4    30.0    29.6    29.3    28.9    28.6    28.0    27.5
 2018 066   191    30.9    30.8    30.6    30.2    29.9    29.5    29.1    28.7    28.2    27.6
 2018 067   192    30.5    30.4    30.2    29.9    29.5    29.2    28.8    28.5    27.9    27.4
 2018 068   193    29.8    29.8    29.6    29.3    29.0    28.7    28.3    28.0    27.6    27.1
 2018 069   194    29.6    29.5    29.3    29.0    28.7    28.4    28.1    27.8    27.4    27.0
 2018 070   195    29.4    29.4    29.2    28.9    28.6    28.3    28.0    27.7    27.3    26.9
 2018 071   196    29.2    29.2    29.0    28.7    28.4    28.2    27.9    27.6    27.2    26.8
 2018 072   197    29.2    29.2    29.0    28.7    28.4    28.2    27.9    27.6    27.2    26.8
 2018 073   198    29.6    29.5    29.3    29.0    28.7    28.4    28.1    27.8    27.4    26.9
 2018 074   199    29.7    29.6    29.4    29.1    28.8    28.5    28.2    27.9    27.4    27.0
 2018 075   200    29.6    29.6    29.4    29.1    28.7    28.4    28.1    27.8    27.4    26.9
 2018 076   201    29.4    29.4    29.2    28.9    28.6    28.3    28.0    27.7    27.3    26.8
 2018 077   202    29.1    29.0    28.9    28.6    28.3    28.0    27.7    27.5    27.1    26.7
 2018 078   203    28.8    28.7    28.6    28.3    28.0    27.8    27.5    27.2    26.9    26.5
 2018 079   204    28.7    28.7    28.5    28.2    27.9    27.7    27.4    27.2    26.8    26.4
 2018 080   205    28.3    28.3    28.1    27.9    27.6    27.4    27.1    26.9    26.6    26.3
 2018 081   206    28.4    28.4    28.2    28.0    27.7    27.5    27.2    27.0    26.6    26.3
 2018 082   207    28.3    28.3    28.1    27.9    27.6    27.4    27.1    26.9    26.6    26.2
 2018 083   208    28.6    28.5    28.4    28.1    27.8    27.6    27.3    27.0    26.7    26.3
 2018 084   209    28.7    28.6    28.4    28.2    27.9    27.6    27.3    27.1    26.7    26.4
 2018 085   210    29.4    29.3    29.1    28.8    28.4    28.1    27.8    27.5    27.1    26.6
 2018 086   211    29.3    29.3    29.1    28.7    28.4    28.1    27.8    27.4    27.0    26.6
 2018 087   212    29.7    29.6    29.4    29.1    28.7    28.3    28.0    27.6    27.2    26.7
 2018 088   213    29.3    29.2    29.0    28.7    28.3    28.0    27.7    27.4    26.9    26.5
 2018 089   214    29.2    29.1    28.9    28.6    28.2    27.9    27.6    27.3    26.9    26.5
 2018 090   215    28.9    28.8    28.6    28.3    28.0    27.7    27.4    27.1    26.7    26.3
 2018 091   216    28.7    28.6    28.4    28.1    27.8    27.5    27.2    27.0    26.6    26.2
 2018 092   217    28.4    28.3    28.1    27.9    27.6    27.3    27.0    26.8    26.4    26.1
 2018 093   218    28.6    28.5    28.3    28.0    27.7    27.4    27.1    26.9    26.5    26.2
 2018 094   219    28.8    28.7    28.5    28.2    27.8    27.5    27.3    27.0    26.6    26.2
 2018 095   220    28.6    28.5    28.3    28.0    27.7    27.4    27.1    26.9    26.5    26.2
 2018 096   221    28.5    28.5    28.3    28.0    27.7    27.4    27.1    26.8    26.5    26.1
 2018 097   222    28.8    28.7    28.5    28.2    27.9    27.6    27.3    27.0    26.6    26.3
 2018 098   223    28.7    28.6    28.4    28.1    27.8    27.5    27.2    26.9    26.5    26.2
 2018 099   224    28.5    28.4    28.2    27.9    27.6    27.4    27.1    26.8    26.5    26.1
 2018 100   225    28.3    28.3    28.1    27.8    27.5    27.3    27.0    26.8    26.4    26.1
 2018 101   226    28.9    28.8    28.6    28.3    27.9    27.6    27.3    27.0    26.6    26.3
 2018 102   227    29.0    29.0    28.7    28.4    28.0    27.7    27.4    27.1    26.7    26.3
 2018 103   228    29.3    29.2    29.0    28.6    28.2    27.9    27.5    27.2    26.7    26.3
 2018 104   229    29.4    29.3    29.0    28.7    28.3    27.9    27.6    27.2    26.8    26.3
 2018 105   230    29.4    29.3    29.0    28.7    28.3    27.9    27.5    27.2    26.7    26.3
 2018 106   231    29.1    29.0    28.7    28.4    28.0    27.7    27.3    27.0    26.6    26.2
 2018 107   232    29.0    28.9    28.7    28.4    28.0    27.7    27.3    27.0    26.6    26.2
 2018 108   233    28.9    28.8    28.6    28.3    27.9    27.6    27.3    27.0    26.6    26.2
 2018 109   234    28.7    28.6    28.4    28.1    27.8    27.5    27.2    26.9    26.5    26.1
 2018 110   235    28.7    28.6    28.4    28.1    27.8    27.5    27.2    26.9    26.5    26.2
 2018 111   236    28.5    28.5    28.3    28.0    27.7    27.4    27.1    26.9    26.5    26.1
 2018 112   237    28.4    28.3    28.1    27.8    27.5    27.2    27.0    26.7    26.4    26.0
 2018 113   238    28.2    28.2    28.0    27.7    27.4    27.1    26.8    26.6    26.2    25.9
 2018 114   239    28.2    28.1    27.9    27.6    27.3    27.1    26.8    26.5    26.2    25.9
 2018 115   240    28.1    28.1    27.9    27.6    27.3    27.0    26.8    26.5    26.2    25.9
 2018 116   241    28.1    28.0    27.9    27.6    27.3    27.0    26.8    26.5    26.2    25.9
 2018 117   242    28.2    28.1    27.9    27.6    27.3    27.0    26.8    26.5    26.2    25.9
 2018 118   243    28.3    28.2    28.0    27.7    27.4    27.1    26.8    26.6    26.2    25.9
 2018 119   244    28.5    28.4    28.2    27.9    27.5    27.2    26.9    26.6    26.3    25.9
 2018 120   245    28.9    28.8    28.5    28.2    27.8    27.4    27.1    26.8    26.4    26.0
 2018 121   246    29.2    29.1    28.9    28.5    28.1    27.7    27.3    27.0    26.5    26.1
 2018 122   247    28.9    28.9    28.6    28.3    27.9    27.5    27.2    26.9    26.4    26.0
 2018 123   248    28.8    28.8    28.5    28.2    27.9    27.6    27.2    26.9    26.5    26.1
 2018 124   249    28.8    28.8    28.5    28.2    27.9    27.5    27.2    26.9    26.5    26.1
 2018 125   250    28.6    28.6    28.3    28.0    27.6    27.3    27.0    26.7    26.3    26.0
 2018 126   251    28.5    28.4    28.2    27.9    27.5    27.2    26.9    26.6    26.3    25.9
 2018 127   252    28.7    28.6    28.4    28.1    27.7    27.4    27.1    26.7    26.3    26.0
 2018 128   253    28.6    28.5    28.3    27.9    27.6    27.3    27.0    26.7    26.3    25.9
 2018 129   254    28.4    28.3    28.1    27.8    27.4    27.1    26.8    26.5    26.2    25.8
 2018 130   255    28.0    27.9    27.7    27.4    27.1    26.9    26.6    26.4    26.0    25.7
 2018 131   256    27.5    27.4    27.3    27.1    26.8    26.6    26.4    26.2    25.9    25.6
 2018 132   257    27.1    27.1    27.0    26.8    26.6    26.4    26.2    26.0    25.8    25.6
 2018 133   258    27.1    27.0    26.9    26.7    26.5    26.4    26.2    26.0    25.8    25.6
 2018 134   259    27.0    27.0    26.9    26.7    26.5    26.3    26.2    26.0    25.8    25.6
 2018 135   260    27.3    27.2    27.1    26.9    26.7    26.5    26.3    26.2    25.9    25.7
 2018 136   261    27.6    27.6    27.4    27.2    27.0    26.8    26.6    26.3    26.1    25.8
 2018 137   262    27.5    27.4    27.3    27.1    26.9    26.7    26.5    26.3    26.0    25.7
 2018 138   263    27.6    27.5    27.4    27.2    27.0    26.8    26.6    26.4    26.1    25.8
 2018 139   264    27.8    27.8    27.6    27.4    27.2    27.0    26.8    26.5    26.2    25.9
 2018 140   265    27.9    27.8    27.7    27.5    27.2    27.0    26.8    26.6    26.2    25.9
 2018 141   266    27.8    27.7    27.6    27.4    27.1    26.9    26.7    26.5    26.2    25.9
 2018 142   267    27.8    27.7    27.6    27.4    27.1    26.9    26.7    26.5    26.2    25.9
 2018 143   268    27.9    27.9    27.7    27.5    27.3    27.1    26.9    26.7    26.4    26.0
 2018 144   269    27.7    27.7    27.6    27.4    27.2    27.0    26.8    26.5    26.2    25.9
 2018 145   270    27.5    27.5    27.3    27.2    27.0    26.8    26.6    26.4    26.1    25.8
 2018 146   271    27.4    27.4    27.3    27.1    26.9    26.7    26.6    26.4    26.1    25.8
 2018 147   272    27.6    27.6    27.5    27.3    27.1    26.9    26.7    26.5    26.2    25.9
 2018 148   273    27.5    27.5    27.4    27.2    27.0    26.8    26.6    26.5    26.2    25.9
 2018 149   274    27.3    27.3    27.2    27.0    26.9    26.7    26.5    26.3    26.1    25.8
 2018 150   275    27.4    27.3    27.2    27.0    26.9    26.7    26.5    26.3    26.1    25.8
 2018 151   276    27.7    27.7    27.6    27.4    27.2    27.0    26.8    26.5    26.2    25.9
 2018 152   277    28.0    27.9    27.8    27.6    27.4    27.2    26.9    26.7    26.4    26.0
 2018 153   278    27.8    27.8    27.7    27.5    27.2    27.0    26.8    26.6    26.3    26.0
 2018 154   279    27.9    27.9    27.7    27.5    27.3    27.1    26.9    26.7    26.4    26.0
 2018 155   280    27.9    27.9    27.8    27.6    27.3    27.1    26.9    26.7    26.4    26.0
 2018 156   281    27.7    27.7    27.6    27.4    27.2    27.0    26.8    26.6    26.3    26.0
 2018 157   282    27.5    27.4    27.3    27.1    27.0    26.8    26.6    26.4    26.1    25.9
 2018 158   283    27.7    27.7    27.6    27.4    27.2    27.0    26.8    26.6    26.4    26.0
 2018 159   284    27.7    27.7    27.6    27.4    27.2    27.0    26.9    26.7    26.4    26.1
 2018 160   285    27.5    27.5    27.4    27.3    27.1    27.0    26.8    26.7    26.4    26.1
 2018 161   286    27.3    27.2    27.2    27.1    26.9    26.8    26.7    26.5    26.3    26.1
 2018 162   287    27.3    27.3    27.3    27.2    27.0    26.9    26.8    26.7    26.4    26.2
 2018 163   288    27.2    27.2    27.1    27.0    26.9    26.8    26.7    26.6    26.3    26.1
 2018 164   289    27.3    27.2    27.2    27.1    27.0    26.9    26.7    26.6    26.4    26.1
 2018 165   290    27.6    27.5    27.5    27.3    27.2    27.1    27.0    26.8    26.6    26.3
 2018 166   291    27.9    27.8    27.8    27.6    27.5    27.4    27.2    27.0    26.8    26.5
 2018 167   292    27.6    27.6    27.5    27.4    27.3    27.1    27.0    26.9    26.6    26.3
 2018 168   293    27.4    27.4    27.4    27.3    27.1    27.0    26.9    26.8    26.5    26.3
 2018 169   294    27.0    27.0    26.9    26.8    26.7    26.6    26.5    26.4    26.2    26.0
 2018 170   295    26.6    26.6    26.6    26.5    26.4    26.3    26.2    26.1    26.0    25.8
 2018 171   296    26.0    26.0    25.9    25.9    25.8    25.8    25.7    25.7    25.6    25.4
 2018 172   297    25.6    25.6    25.6    25.5    25.5    25.5    25.4    25.4    25.3    25.2
 2018 173   298    25.5    25.5    25.5    25.4    25.4    25.4    25.4    25.3    25.3    25.2
 2018 174   299    25.5    25.5    25.5    25.5    25.4    25.4    25.4    25.3    25.3    25.2
 2018 175   300    25.5    25.5    25.5    25.4    25.4    25.4    25.3    25.3    25.3    25.2
 2018 176   301    26.0    26.0    26.0    25.9    25.9    25.8    25.8    25.7    25.6    25.5
 2018 177   302    26.5    26.5    26.5    26.4    26.3    26.3    26.2    26.1    26.0    25.8
 2018 178   303    26.7    26.6    26.6    26.5    26.5    26.4    26.3    26.2    26.1    25.9
 2018 179   304    26.8    26.8    26.8    26.7    26.6    26.5    26.4    26.3    26.2    26.0
 2018 180   305    26.9    26.9    26.9    26.8    26.7    26.6    26.5    26.4    26.3    26.1
 2018 181   306    26.8    26.8    26.7    26.7    26.6    26.5    26.4    26.3    26.2    26.0
 2018 182   307    26.4    26.4    26.4    26.3    26.3    26.2    26.1    26.1    25.9    25.8
 2018 183   308    26.3    26.3    26.2    26.2    26.1    26.1    26.0    26.0    25.8    25.7
 2018 184   309    26.0    26.0    26.0    25.9    25.9    25.8    25.8    25.7    25.6    25.5
 2018 185   310    26.1    26.1    26.1    26.0    26.0    26.0    25.9    25.8    25.7    25.6
 2018 186   311    26.0    26.0    25.9    25.9    25.9    25.8    25.8    25.7    25.6    25.5
 2018 187   312    26.1    26.1    26.1    26.1    26.0    26.0    25.9    25.9    25.8    25.6
 2018 188   313    25.8    25.8    25.8    25.8    25.8    25.7    25.7    25.6    25.6    25.5
 2018 189   314    26.3    26.3    26.3    26.2    26.2    26.1    26.0    26.0    25.9    25.7
 2018 190   315    26.3    26.3    26.3    26.2    26.2    26.1    26.1    26.0    25.9    25.8
 2018 191   316    26.7    26.7    26.6    26.6    26.5    26.5    26.4    26.3    26.2    26.0
 2018 192   317    27.0    27.0    27.0    26.9    26.8    26.7    26.7    26.6    26.4    26.2
 2018 193   318    27.4    27.3    27.3    27.2    27.1    27.0    26.9    26.8    26.6    26.4
 2018 194   319    27.2    27.2    27.1    27.1    27.0    26.9    26.8    26.7    26.5    26.3

*DSSAT Cropping System Model Ver. 4.8.0.019 -develop  APR 08, 2023 12:34:38

*RUN   3        : IITA-TMS-IBA000070        CSYCA048 UYAG1801    1
 MODEL          : CSYCA048 - Cassava
 EXPERIMENT     : UYAG1801 CS UYT_GXE
 DATA PATH      :
 TREATMENT  1   : IITA-TMS-IBA000070        CSYCA048
  
! TAV  =    25.4
! TAMP =     2.5
!               Temperature (oC) by soil depth (cm):
!               Surface     0-5    5-15   15-30   30-45   45-60   60-80  80-100 100-150 150-200
@YEAR DOY   DAS    TS0D    TS1D    TS2D    TS3D    TS4D    TS5D    TS6D    TS7D    TS8D    TS9D    
 2018 171     1    25.7    25.7    25.7    25.6    25.6    25.6    25.5    25.5    25.4    25.3
 2018 172     2    25.4    25.4    25.4    25.4    25.4    25.3    25.3    25.3    25.2    25.1
 2018 173     3    25.6    25.6    25.6    25.5    25.5    25.5    25.4    25.4    25.3    25.2
 2018 174     4    25.5    25.5    25.5    25.5    25.4    25.4    25.4    25.3    25.3    25.2
 2018 175     5    25.5    25.5    25.5    25.4    25.4    25.4    25.3    25.3    25.3    25.2
 2018 176     6    26.1    26.0    26.0    26.0    25.9    25.9    25.8    25.8    25.7    25.5
 2018 177     7    26.6    26.5    26.5    26.4    26.4    26.3    26.2    26.1    26.0    25.8
 2018 178     8    26.7    26.7    26.6    26.6    26.5    26.4    26.3    26.2    26.1    25.9
 2018 179     9    26.8    26.8    26.8    26.7    26.6    26.5    26.5    26.4    26.2    26.0
 2018 180    10    26.9    26.9    26.9    26.8    26.7    26.6    26.5    26.4    26.3    26.1
 2018 181    11    26.8    26.7    26.7    26.6    26.6    26.5    26.4    26.3    26.2    26.0
 2018 182    12    26.4    26.4    26.3    26.3    26.2    26.2    26.1    26.0    25.9    25.8
 2018 183    13    26.3    26.3    26.2    26.2    26.1    26.1    26.0    25.9    25.8    25.7
 2018 184    14    26.0    26.0    25.9    25.9    25.9    25.8    25.8    25.7    25.6    25.5
 2018 185    15    26.1    26.1    26.1    26.1    26.0    26.0    25.9    25.8    25.8    25.6
 2018 186    16    26.0    25.9    25.9    25.9    25.9    25.8    25.8    25.7    25.6    25.5
 2018 187    17    26.2    26.2    26.1    26.1    26.0    26.0    25.9    25.9    25.8    25.7
 2018 188    18    25.8    25.8    25.8    25.8    25.7    25.7    25.7    25.6    25.5    25.5
 2018 189    19    26.3    26.3    26.3    26.3    26.2    26.1    26.1    26.0    25.9    25.8
 2018 190    20    26.3    26.3    26.3    26.2    26.2    26.1    26.1    26.0    25.9    25.8
 2018 191    21    26.7    26.7    26.7    26.6    26.6    26.5    26.4    26.3    26.2    26.0
 2018 192    22    27.1    27.1    27.0    26.9    26.9    26.8    26.7    26.6    26.4    26.2
 2018 193    23    27.4    27.4    27.3    27.3    27.2    27.1    27.0    26.8    26.6    26.4
 2018 194    24    27.2    27.2    27.1    27.0    27.0    26.9    26.8    26.7    26.5    26.3
 2018 195    25    27.2    27.2    27.1    27.1    27.0    26.9    26.8    26.7    26.5    26.3
 2018 196    26    27.0    27.0    27.0    26.9    26.8    26.8    26.7    26.6    26.4    26.2
 2018 197    27    26.9    26.9    26.9    26.8    26.7    26.7    26.6    26.5    26.3    26.2
 2018 198    28    26.7    26.7    26.7    26.6    26.5    26.5    26.4    26.3    26.2    26.0
 2018 199    29    26.7    26.6    26.6    26.6    26.5    26.4    26.4    26.3    26.2    26.0
 2018 200    30    26.7    26.7    26.7    26.6    26.6    26.5    26.4    26.4    26.2    26.1
 2018 201    31    26.5    26.5    26.4    26.4    26.4    26.3    26.2    26.2    26.1    25.9
 2018 202    32    26.0    26.0    26.0    26.0    26.0    25.9    25.9    25.8    25.8    25.7
 2018 203    33    26.4    26.4    26.3    26.3    26.3    26.2    26.2    26.1    26.0    25.9
 2018 204    34    26.8    26.8    26.8    26.7    26.7    26.6    26.5    26.5    26.3    26.1
 2018 205    35    26.8    26.7    26.7    26.7    26.6    26.5    26.5    26.4    26.3    26.1
 2018 206    36    26.7    26.7    26.7    26.6    26.6    26.5    26.5    26.4    26.3    26.1
 2018 207    37    27.0    26.9    26.9    26.9    26.8    26.7    26.7    26.6    26.4    26.2
 2018 208    38    26.9    26.9    26.9    26.8    26.8    26.7    26.6    26.5    26.4    26.2
 2018 209    39    26.5    26.5    26.5    26.5    26.4    26.4    26.3    26.3    26.2    26.0
 2018 210    40    26.2    26.2    26.1    26.1    26.1    26.1    26.0    26.0    25.9    25.8
 2018 211    41    26.2    26.2    26.2    26.2    26.1    26.1    26.1    26.0    26.0    25.8
 2018 212    42    26.3    26.3    26.3    26.2    26.2    26.2    26.1    26.1    26.0    25.9
 2018 213    43    26.1    26.1    26.1    26.1    26.1    26.0    26.0    26.0    25.9    25.8
 2018 214    44    26.0    26.0    26.0    26.0    26.0    25.9    25.9    25.9    25.8    25.7
 2018 215    45    26.3    26.3    26.2    26.2    26.2    26.2    26.1    26.1    26.0    25.9
 2018 216    46    26.5    26.5    26.4    26.4    26.4    26.3    26.3    26.2    26.1    26.0
 2018 217    47    26.3    26.3    26.2    26.2    26.2    26.2    26.1    26.1    26.0    25.9
 2018 218    48    26.0    26.0    25.9    25.9    25.9    25.9    25.9    25.9    25.8    25.7
 2018 219    49    26.0    26.0    26.0    26.0    26.0    26.0    25.9    25.9    25.9    25.8
 2018 220    50    26.2    26.2    26.2    26.2    26.1    26.1    26.1    26.1    26.0    25.9
 2018 221    51    26.0    26.0    26.0    26.0    26.0    26.0    26.0    25.9    25.9    25.8
 2018 222    52    26.2    26.2    26.2    26.2    26.2    26.2    26.1    26.1    26.0    25.9
 2018 223    53    26.8    26.7    26.7    26.7    26.6    26.6    26.5    26.5    26.4    26.2
 2018 224    54    26.7    26.7    26.7    26.7    26.6    26.6    26.5    26.5    26.4    26.2
[...]
 2020 009   202    26.8    26.8    26.7    26.7    26.6    26.5    26.5    26.4    26.4    26.3
 2020 010   203    28.0    28.0    27.9    27.7    27.6    27.4    27.3    27.2    27.0    26.8
 2020 011   204    28.5    28.4    28.3    28.1    27.9    27.8    27.6    27.4    27.2    26.9
 2020 012   205    28.9    28.8    28.7    28.4    28.2    28.0    27.8    27.6    27.3    27.0
 2020 013   206    29.4    29.4    29.2    28.9    28.7    28.4    28.2    28.0    27.6    27.2
 2020 014   207    30.2    30.1    29.9    29.6    29.3    29.0    28.7    28.4    28.0    27.5
 2020 015   208    30.0    30.0    29.8    29.4    29.1    28.8    28.5    28.3    27.8    27.4
 2020 016   209    29.7    29.6    29.5    29.2    28.8    28.6    28.3    28.0    27.7    27.2
 2020 017   210    29.2    29.2    29.0    28.7    28.5    28.2    28.0    27.7    27.4    27.0
 2020 018   211    28.2    28.1    28.0    27.8    27.6    27.4    27.2    27.1    26.9    26.6
 2020 019   212    27.0    26.9    26.8    26.7    26.6    26.5    26.4    26.3    26.3    26.2
 2020 020   213    26.8    26.7    26.7    26.5    26.4    26.3    26.3    26.2    26.1    26.1
 2020 021   214    27.2    27.1    27.0    26.9    26.7    26.6    26.5    26.4    26.3    26.2
 2020 022   215    27.4    27.3    27.2    27.0    26.9    26.7    26.6    26.5    26.4    26.2
 2020 023   216    27.7    27.7    27.5    27.3    27.1    27.0    26.8    26.7    26.5    26.3
 2020 024   217    27.9    27.9    27.7    27.5    27.3    27.1    26.9    26.8    26.6    26.4
 2020 025   218    27.5    27.5    27.3    27.1    26.9    26.8    26.6    26.5    26.4    26.2
 2020 026   219    27.0    27.0    26.8    26.7    26.5    26.4    26.3    26.2    26.1    26.0
 2020 027   220    26.8    26.7    26.6    26.5    26.3    26.2    26.1    26.0    26.0    25.9
 2020 028   221    27.0    27.0    26.8    26.6    26.5    26.4    26.2    26.1    26.0    26.0
 2020 029   222    27.4    27.3    27.2    27.0    26.8    26.6    26.4    26.3    26.2    26.0
 2020 030   223    27.9    27.8    27.6    27.4    27.1    26.9    26.8    26.6    26.4    26.2
 2020 031   224    28.3    28.2    28.0    27.7    27.4    27.2    27.0    26.8    26.5    26.3
 2020 032   225    28.4    28.4    28.1    27.8    27.5    27.3    27.0    26.8    26.6    26.3
 2020 033   226    28.4    28.3    28.1    27.8    27.5    27.2    27.0    26.8    26.5    26.3
 2020 034   227    28.4    28.3    28.1    27.8    27.4    27.2    26.9    26.7    26.5    26.2
 2020 035   228    28.1    28.1    27.8    27.5    27.2    27.0    26.8    26.6    26.3    26.1
 2020 036   229    28.0    27.9    27.7    27.4    27.1    26.9    26.6    26.5    26.2    26.0
 2020 037   230    28.0    27.9    27.7    27.4    27.1    26.8    26.6    26.4    26.2    26.0
 2020 038   231    28.3    28.2    27.9    27.6    27.3    27.0    26.8    26.6    26.3    26.1
 2020 039   232    28.5    28.4    28.2    27.8    27.4    27.2    26.9    26.7    26.4    26.1
 2020 040   233    29.0    28.9    28.6    28.2    27.8    27.4    27.1    26.8    26.5    26.2
 2020 041   234    29.1    29.0    28.7    28.3    27.9    27.5    27.2    26.9    26.6    26.2
 2020 042   235    29.0    28.9    28.6    28.2    27.8    27.4    27.1    26.8    26.5    26.2
 2020 043   236    28.2    28.1    27.9    27.5    27.1    26.8    26.6    26.4    26.1    25.9
 2020 044   237    27.4    27.3    27.1    26.8    26.5    26.3    26.1    25.9    25.8    25.7
 2020 045   238    27.4    27.3    27.1    26.8    26.5    26.2    26.1    25.9    25.8    25.7
 2020 046   239    27.8    27.7    27.5    27.1    26.8    26.5    26.3    26.1    25.9    25.8
 2020 047   240    28.7    28.5    28.2    27.8    27.4    27.0    26.7    26.5    26.2    25.9
 2020 048   241    29.6    29.4    29.0    28.5    28.0    27.6    27.2    26.9    26.5    26.1
 2020 049   242    30.3    30.1    29.7    29.1    28.5    28.0    27.6    27.2    26.7    26.3
 2020 050   243    30.3    30.1    29.7    29.1    28.5    28.0    27.5    27.1    26.7    26.2
 2020 051   244    30.2    30.1    29.7    29.0    28.4    27.9    27.5    27.1    26.6    26.2
 2020 052   245    30.3    30.1    29.7    29.1    28.4    27.9    27.5    27.1    26.6    26.2
 2020 053   246    30.8    30.6    30.1    29.5    28.8    28.2    27.7    27.3    26.7    26.2
 2020 054   247    31.2    31.1    30.5    29.8    29.1    28.5    27.9    27.4    26.8    26.3
 2020 055   248    31.3    31.1    30.6    29.8    29.1    28.5    27.9    27.4    26.8    26.3
 2020 056   249    31.0    30.9    30.3    29.6    28.8    28.3    27.7    27.2    26.7    26.2
 2020 057   250    30.6    30.4    29.9    29.2    28.5    27.9    27.4    27.0    26.5    26.1
 2020 058   251    30.4    30.2    29.7    29.0    28.3    27.8    27.3    26.9    26.4    26.0
 2020 059   252    30.4    30.2    29.7    29.0    28.3    27.7    27.2    26.8    26.4    26.0
 2020 060   253    31.0    30.8    30.2    29.5    28.7    28.1    27.5    27.1    26.5    26.1
 2020 061   254    32.1    31.9    31.3    30.3    29.4    28.7    28.1    27.5    26.8    26.2
 2020 062   255    32.9    32.7    32.0    31.0    30.0    29.2    28.4    27.8    27.0    26.4
 2020 063   256    33.2    33.0    32.2    31.2    30.1    29.3    28.5    27.9    27.1    26.4
 2020 064   257    33.8    33.5    32.8    31.6    30.5    29.6    28.8    28.1    27.2    26.4
 2020 065   258    34.2    33.9    33.1    31.9    30.7    29.8    28.9    28.2    27.2    26.5
 2020 066   259    34.1    33.8    32.9    31.8    30.6    29.7    28.8    28.1    27.2    26.4
 2020 067   260    34.4    34.1    33.3    32.0    30.8    29.8    28.9    28.1    27.2    26.4
 2020 068   261    34.8    34.4    33.5    32.3    31.0    30.0    29.0    28.2    27.3    26.4
 2020 069   262    35.1    34.8    33.8    32.5    31.2    30.1    29.1    28.3    27.3    26.4
 2020 070   263    35.3    34.9    34.0    32.6    31.2    30.2    29.2    28.3    27.3    26.4
 2020 071   264    35.1    34.7    33.8    32.4    31.0    30.0    29.0    28.2    27.2    26.4
 2020 072   265    34.2    33.9    33.0    31.7    30.4    29.4    28.5    27.8    26.9    26.2
 2020 073   266    33.4    33.1    32.3    31.0    29.9    28.9    28.1    27.4    26.7    26.0
 2020 074   267    32.5    32.2    31.4    30.3    29.2    28.4    27.6    27.0    26.4    25.9
 2020 075   268    32.0    31.7    30.9    29.9    28.8    28.0    27.4    26.8    26.2    25.8
 2020 076   269    32.3    32.0    31.2    30.1    29.0    28.2    27.5    26.9    26.3    25.8
 2020 077   270    33.3    33.0    32.1    30.8    29.6    28.7    27.9    27.2    26.5    25.9
 2020 078   271    34.4    34.1    33.1    31.7    30.3    29.3    28.3    27.6    26.7    26.0
 2020 079   272    35.5    35.1    34.0    32.4    30.9    29.8    28.7    27.9    26.9    26.1
 2020 080   273    35.9    35.5    34.3    32.7    31.1    29.9    28.9    28.0    26.9    26.1
 2020 081   274    35.9    35.5    34.3    32.7    31.1    29.9    28.8    27.9    26.9    26.1
 2020 082   275    36.0    35.6    34.4    32.7    31.1    29.9    28.8    27.9    26.9    26.1
 2020 083   276    35.6    35.2    34.1    32.4    30.9    29.7    28.6    27.7    26.8    26.0
 2020 084   277    34.2    33.8    32.8    31.4    30.0    28.9    28.0    27.3    26.4    25.8
 2020 085   278    33.0    32.8    32.3    31.6    30.8    30.0    29.3    28.7    27.7    26.9
 2020 086   279    32.2    32.1    31.7    31.0    30.3    29.7    29.1    28.5    27.6    26.8
 2020 087   280    31.7    31.5    31.1    30.5    29.8    29.2    28.6    28.0    27.2    26.5
 2020 088   281    31.6    31.5    31.0    30.4    29.7    29.1    28.4    27.9    27.1    26.4
 2020 089   282    32.6    32.4    31.9    31.2    30.4    29.7    29.0    28.3    27.4    26.6
 2020 090   283    33.4    33.2    32.7    31.9    31.0    30.2    29.5    28.7    27.7    26.8
 2020 091   284    33.1    32.9    32.4    31.6    30.7    29.9    29.2    28.5    27.5    26.7
 2020 092   285    32.5    32.3    31.9    31.3    30.6    30.0    29.4    28.8    27.9    27.0
 2020 093   286    31.3    31.1    30.8    30.2    29.6    29.1    28.5    28.0    27.2    26.5
 2020 094   287    30.6    30.5    30.2    29.6    29.1    28.5    28.0    27.5    26.8    26.1
 2020 095   288    30.4    30.3    29.9    29.4    28.8    28.3    27.8    27.3    26.6    26.0
 2020 096   289    30.8    30.6    30.3    29.7    29.1    28.5    28.0    27.4    26.7    26.0
 2020 097   290    31.0    30.8    30.4    29.8    29.2    28.6    28.0    27.5    26.8    26.1
 2020 098   291    31.0    30.9    30.5    29.9    29.3    28.7    28.1    27.6    26.8    26.1
 2020 099   292    30.4    30.3    30.0    29.5    29.0    28.6    28.1    27.6    26.9    26.2
 2020 100   293    29.3    29.2    28.9    28.5    28.1    27.7    27.3    26.9    26.3    25.7
 2020 101   294    28.5    28.4    28.2    27.9    27.5    27.2    26.8    26.5    26.0    25.5
 2020 102   295    28.0    27.9    27.7    27.4    27.1    26.8    26.5    26.1    25.7    25.2
 2020 103   296    27.9    27.8    27.6    27.3    27.0    26.7    26.4    26.1    25.7    25.2
 2020 104   297    28.5    28.4    28.2    27.9    27.5    27.2    26.8    26.5    26.0    25.5
 2020 105   298    29.6    29.5    29.2    28.9    28.4    28.1    27.7    27.3    26.7    26.0
 2020 106   299    30.4    30.4    30.1    29.7    29.2    28.8    28.4    27.9    27.3    26.5
 2020 107   300    31.4    31.3    31.0    30.5    30.1    29.6    29.1    28.6    27.9    27.0
 2020 108   301    32.4    32.3    31.9    31.5    30.9    30.4    29.9    29.3    28.4    27.5
 2020 109   302    32.8    32.7    32.4    31.9    31.3    30.7    30.2    29.6    28.7    27.7
 2020 110   303    33.0    32.9    32.5    32.0    31.4    30.9    30.3    29.6    28.7    27.7
 2020 111   304    32.9    32.8    32.5    31.9    31.3    30.8    30.2    29.6    28.7    27.7
 2020 112   305    32.7    32.6    32.2    31.7    31.1    30.6    30.0    29.4    28.5    27.5
 2020 113   306    32.2    32.1    31.8    31.3    30.7    30.2    29.6    29.0    28.2    27.2
 2020 114   307    32.0    31.9    31.6    31.1    30.5    30.0    29.5    28.9    28.1    27.1
 2020 115   308    31.7    31.6    31.3    30.8    30.3    29.7    29.2    28.7    27.8    27.0
 2020 116   309    31.7    31.6    31.3    30.8    30.3    29.7    29.2    28.7    27.8    26.9
 2020 117   310    31.4    31.3    31.0    30.5    30.0    29.5    28.9    28.4    27.6    26.8
 2020 118   311    30.8    30.7    30.4    30.0    29.5    29.0    28.6    28.1    27.3    26.5
 2020 119   312    30.2    30.1    29.9    29.5    29.0    28.6    28.2    27.8    27.1    26.4
 2020 120   313    29.6    29.6    29.3    29.0    28.6    28.2    27.8    27.4    26.8    26.1
 2020 121   314    28.8    28.7    28.6    28.2    27.9    27.6    27.2    26.9    26.3    25.7
 2020 122   315    28.5    28.4    28.3    28.0    27.6    27.3    27.0    26.7    26.2    25.6
 2020 123   316    28.6    28.5    28.3    28.0    27.7    27.4    27.1    26.7    26.2    25.7
 2020 124   317    28.4    28.3    28.1    27.9    27.5    27.2    26.9    26.6    26.1    25.5
 2020 125   318    28.3    28.3    28.1    27.8    27.5    27.2    26.9    26.5    26.0    25.5
 2020 126   319    29.1    29.0    28.8    28.5    28.1    27.8    27.4    27.1    26.5    25.9
 2020 127   320    29.9    29.8    29.6    29.2    28.8    28.5    28.1    27.7    27.0    26.3
 2020 128   321    30.7    30.6    30.4    30.0    29.6    29.1    28.7    28.2    27.6    26.8
 2020 129   322    31.5    31.4    31.1    30.7    30.2    29.8    29.3    28.8    28.1    27.2
 2020 130   323    31.8    31.8    31.5    31.0    30.6    30.1    29.6    29.1    28.3    27.3
 2020 131   324    31.5    31.4    31.2    30.8    30.3    29.9    29.4    28.9    28.2    27.3
 2020 132   325    30.8    30.7    30.5    30.1    29.7    29.3    28.9    28.5    27.8    27.0
 2020 133   326    30.3    30.3    30.1    29.7    29.3    28.9    28.5    28.1    27.5    26.7
 2020 134   327    30.3    30.2    30.0    29.6    29.2    28.9    28.5    28.1    27.4    26.7
 2020 135   328    30.8    30.7    30.4    30.1    29.7    29.3    28.8    28.4    27.7    26.9
 2020 136   329    30.7    30.6    30.4    30.0    29.6    29.2    28.8    28.3    27.6    26.8
 2020 137   330    30.7    30.6    30.4    30.0    29.6    29.2    28.8    28.3    27.6    26.8
 2020 138   331    30.4    30.3    30.1    29.8    29.4    29.0    28.6    28.2    27.5    26.7
 2020 139   332    30.2    30.1    29.9    29.5    29.2    28.8    28.4    28.0    27.3    26.6
 2020 140   333    29.5    29.4    29.2    28.9    28.6    28.2    27.9    27.5    26.9    26.2
 2020 141   334    29.4    29.3    29.1    28.8    28.4    28.1    27.8    27.4    26.8    26.1
 2020 142   335    29.5    29.4    29.2    28.9    28.6    28.2    27.9    27.5    26.9    26.2
 2020 143   336    29.5    29.5    29.3    29.0    28.6    28.3    27.9    27.5    26.9    26.3
 2020 144   337    29.1    29.1    28.9    28.6    28.3    28.0    27.7    27.3    26.8    26.1
 2020 145   338    28.8    28.7    28.6    28.3    28.0    27.7    27.4    27.1    26.5    25.9
 2020 146   339    28.6    28.5    28.3    28.1    27.8    27.5    27.2    26.9    26.4    25.8
 2020 147   340    28.3    28.3    28.1    27.8    27.6    27.3    27.0    26.7    26.2    25.7
 2020 148   341    28.0    28.0    27.8    27.6    27.3    27.1    26.8    26.5    26.0    25.5
 2020 149   342    28.0    28.0    27.8    27.6    27.3    27.1    26.8    26.5    26.0    25.5
 2020 150   343    28.6    28.5    28.4    28.1    27.8    27.5    27.2    26.9    26.4    25.8
 2020 151   344    28.9    28.9    28.7    28.4    28.1    27.8    27.5    27.1    26.6    26.0
 2020 152   345    29.1    29.0    28.8    28.6    28.2    27.9    27.6    27.3    26.7    26.1
 2020 153   346    29.2    29.2    29.0    28.7    28.4    28.1    27.7    27.4    26.8    26.2
 2020 154   347    29.4    29.4    29.2    28.9    28.5    28.2    27.9    27.5    26.9    26.2
 2020 155   348    29.4    29.3    29.2    28.9    28.5    28.2    27.9    27.5    26.9    26.2
 2020 156   349    29.1    29.0    28.9    28.6    28.3    28.0    27.6    27.3    26.7    26.1
 2020 157   350    29.0    28.9    28.8    28.5    28.2    27.9    27.5    27.2    26.7    26.0
 2020 158   351    28.8    28.7    28.6    28.3    28.0    27.7    27.4    27.0    26.5    25.9
 2020 159   352    28.9    28.9    28.7    28.4    28.1    27.8    27.5    27.2    26.6    26.0
 2020 160   353    29.2    29.1    28.9    28.7    28.3    28.0    27.7    27.4    26.8    26.2
 2020 161   354    29.0    28.9    28.8    28.5    28.2    27.9    27.6    27.3    26.7    26.1
 2020 162   355    28.6    28.6    28.4    28.2    27.9    27.7    27.4    27.0    26.6    26.0
 2020 163   356    28.7    28.6    28.5    28.2    28.0    27.7    27.4    27.1    26.6    26.0
 2020 164   357    28.4    28.3    28.2    28.0    27.7    27.5    27.2    26.9    26.4    25.9
 2020 165   358    27.5    27.5    27.4    27.2    26.9    26.7    26.5    26.2    25.8    25.4
 2020 166   359    27.9    27.9    27.7    27.5    27.3    27.1    26.8    26.6    26.1    25.6
 2020 167   360    28.3    28.2    28.1    27.9    27.6    27.4    27.1    26.8    26.4    25.8
 2020 168   361    28.6    28.5    28.4    28.1    27.9    27.6    27.3    27.0    26.6    26.0
 2020 169   362    28.4    28.3    28.2    28.0    27.7    27.5    27.2    26.9    26.4    25.9
 2020 170   363    28.2    28.2    28.0    27.8    27.6    27.3    27.1    26.8    26.3    25.8
 2020 171   364    27.8    27.7    27.6    27.4    27.2    27.0    26.7    26.5    26.1    25.6
 2020 172   365    27.8    27.8    27.7    27.5    27.2    27.0    26.8    26.5    26.1    25.6
 2020 173   366    27.8    27.7    27.6    27.4    27.2    27.0    26.7    26.5    26.1    25.6
 2020 174   367    27.7    27.6    27.5    27.3    27.1    26.9    26.7    26.4    26.0    25.5
 2020 175   368    28.1    28.0    27.9    27.7    27.5    27.2    27.0    26.7    26.3    25.7
 2020 176   369    28.8    28.7    28.6    28.3    28.1    27.8    27.5    27.2    26.7    26.1
 2020 177   370    28.7    28.7    28.5    28.3    28.0    27.8    27.5    27.2    26.7    26.1
 2020 178   371    28.4    28.4    28.2    28.0    27.8    27.5    27.3    27.0    26.5    26.0
 2020 179   372    28.3    28.3    28.1    27.9    27.7    27.5    27.2    26.9    26.5    25.9
 2020 180   373    27.9    27.9    27.8    27.6    27.3    27.1    26.9    26.6    26.2    25.7
 2020 181   374    27.2    27.2    27.1    26.9    26.7    26.6    26.4    26.1    25.8    25.3
 2020 182   375    26.9    26.9    26.8    26.7    26.5    26.3    26.2    26.0    25.6    25.2
 2020 183   376    27.1    27.1    27.0    26.8    26.6    26.5    26.3    26.1    25.7    25.3
 2020 184   377    27.7    27.7    27.5    27.4    27.2    27.0    26.8    26.5    26.1    25.6
 2020 185   378    28.1    28.0    27.9    27.7    27.5    27.3    27.0    26.8    26.4    25.8
 2020 186   379    27.8    27.8    27.7    27.5    27.3    27.1    26.9    26.7    26.3    25.8
 2020 187   380    27.5    27.5    27.4    27.2    27.0    26.8    26.6    26.4    26.1    25.6
 2020 188   381    27.4    27.3    27.2    27.1    26.9    26.8    26.6    26.4    26.1    25.6
 2020 189   382    26.8    26.7    26.7    26.6    26.4    26.3    26.1    26.0    25.7    25.3
 2020 190   383    26.6    26.6    26.5    26.4    26.3    26.2    26.1    25.9    25.6    25.3
 2020 191   384    26.9    26.9    26.8    26.7    26.6    26.4    26.3    26.1    25.8    25.5
 2020 192   385    26.7    26.7    26.6    26.5    26.4    26.3    26.2    26.0    25.7    25.4
 2020 193   386    26.6    26.5    26.5    26.4    26.3    26.2    26.0    25.9    25.6    25.3
 2020 194   387    26.3    26.3    26.3    26.2    26.1    26.0    25.9    25.7    25.5    25.2
 2020 195   388    26.1    26.1    26.1    26.0    25.9    25.8    25.7    25.6    25.4    25.1
 2020 196   389    25.9    25.8    25.8    25.7    25.7    25.6    25.5    25.4    25.2    24.9
 2020 197   390    26.1    26.0    26.0    25.9    25.9    25.8    25.7    25.6    25.4    25.1
 2020 198   391    25.8    25.8    25.8    25.7    25.6    25.6    25.5    25.4    25.2    25.0
 2020 199   392    25.7    25.7    25.6    25.6    25.5    25.5    25.4    25.3    25.1    24.9
 2020 200   393    25.4    25.4    25.4    25.4    25.3    25.3    25.2    25.1    25.0    24.8
 2020 201   394    25.5    25.5    25.5    25.5    25.4    25.4    25.3    25.2    25.1    24.9
 2020 202   395    25.5    25.5    25.5    25.5    25.4    25.4    25.3    25.2    25.1    24.9
 2020 203   396    25.6    25.6    25.6    25.5    25.5    25.4    25.4    25.3    25.1    24.9
 2020 204   397    25.9    25.9    25.9    25.8    25.8    25.7    25.6    25.5    25.4    25.1
 2020 205   398    25.9    25.9    25.9    25.8    25.8    25.7    25.6    25.5    25.4    25.1
 2020 206   399    25.5    25.5    25.5    25.5    25.5    25.4    25.4    25.3    25.2    25.0
 2020 207   400    25.6    25.6    25.6    25.6    25.6    25.5    25.5    25.4    25.2    25.0
 2020 208   401    25.9    25.9    25.9    25.8    25.8    25.7    25.7    25.6    25.4    25.2
 2020 209   402    25.7    25.7    25.7    25.6    25.6    25.6    25.5    25.4    25.3    25.1
 2020 210   403    26.0    26.0    26.0    26.0    25.9    25.9    25.8    25.7    25.5    25.3
 2020 211   404    26.5    26.5    26.4    26.4    26.3    26.3    26.2    26.1    25.9    25.6
 2020 212   405    26.3    26.3    26.3    26.2    26.2    26.1    26.1    26.0    25.8    25.5
 2020 213   406    25.9    25.9    25.9    25.8    25.8    25.8    25.7    25.6    25.5    25.3
 2020 214   407    26.0    26.0    26.0    26.0    25.9    25.9    25.8    25.7    25.6    25.4
 2020 215   408    25.9    25.9    25.9    25.9    25.8    25.8    25.7    25.7    25.5    25.3
 2020 216   409    25.3    25.3    25.3    25.3    25.3    25.3    25.3    25.3    25.2    25.0
